1di8_lig_DTQ
                    3D
 Structure written by MMmdl.
 37 39  0  0  1  0            999 V2000
   40.6210    9.4690  -14.4680 N   0  0  0  0  0  0
   39.8150   10.4060  -15.0940 C   0  0  0  0  0  0
   38.7440   11.0030  -14.4340 N   0  0  0  0  0  0
   38.4000   10.6530  -13.0910 C   0  0  0  0  0  0
   39.2450    9.5810  -12.3570 C   0  0  0  0  0  0
   40.4280    9.0430  -13.1020 C   0  0  0  0  0  0
   37.2700   11.2970  -12.4090 C   0  0  0  0  0  0
   36.9160   10.9450  -11.0180 C   0  0  0  0  0  0
   37.6700    9.8430  -10.3180 C   0  0  0  0  0  0
   38.8220    9.1730  -11.0080 C   0  0  0  0  0  0
   41.3390    8.1260  -12.5180 N   0  0  0  0  0  0
   42.4930    7.4380  -12.9270 C   0  0  0  0  0  0
   43.0930    6.5670  -11.8900 C   0  0  0  0  0  0
   44.3250    5.7970  -12.1660 C   0  0  0  0  0  0
   44.9310    5.8260  -13.5030 C   0  0  0  0  0  0
   44.3560    6.6830  -14.5560 C   0  0  0  0  0  0
   43.1660    7.5030  -14.2670 C   0  0  0  0  0  0
   44.9270    5.0530  -11.1750 O   0  0  0  0  0  0
   35.9150   11.6110  -10.2650 O   0  0  0  0  0  0
   34.9080   12.4530  -10.8370 C   0  0  0  0  0  0
   37.2600    9.5270   -8.9880 O   0  0  0  0  0  0
   37.9520    8.5440   -8.2100 C   0  0  0  0  0  0
   40.0100   10.6900  -16.1180 H   0  0  0  0  0  0
   36.6820   12.0430  -12.9250 H   0  0  0  0  0  0
   39.3440    8.3780  -10.4960 H   0  0  0  0  0  0
   41.2110    7.8280  -11.5610 H   0  0  0  0  0  0
   42.6300    6.4870  -10.9170 H   0  0  0  0  0  0
   45.7980    5.2190  -13.7160 H   0  0  0  0  0  0
   44.8080    6.7090  -15.5380 H   0  0  0  0  0  0
   42.7790    8.1570  -15.0340 H   0  0  0  0  0  0
   34.2650   12.8410  -10.0460 H   0  0  0  0  0  0
   35.3810   13.2840  -11.3590 H   0  0  0  0  0  0
   34.3080   11.8770  -11.5420 H   0  0  0  0  0  0
   37.4800    8.4570   -7.2310 H   0  0  0  0  0  0
   37.9100    7.5820   -8.7200 H   0  0  0  0  0  0
   38.9920    8.8450   -8.0850 H   0  0  0  0  0  0
   45.7090    4.6223  -11.5279 H   0  0  0  0  0  0
  1  2  2  0  0  0
  1  6  1  0  0  0
  2  3  1  0  0  0
  2 23  1  0  0  0
  3  4  2  0  0  0
  4  5  1  0  0  0
  4  7  1  0  0  0
  5  6  2  0  0  0
  5 10  1  0  0  0
  6 11  1  0  0  0
  7  8  2  0  0  0
  7 24  1  0  0  0
  8  9  1  0  0  0
  8 19  1  0  0  0
  9 10  2  0  0  0
  9 21  1  0  0  0
 10 25  1  0  0  0
 11 12  1  0  0  0
 11 26  1  0  0  0
 12 13  2  0  0  0
 12 17  1  0  0  0
 13 14  1  0  0  0
 13 27  1  0  0  0
 14 15  2  0  0  0
 14 18  1  0  0  0
 15 16  1  0  0  0
 15 28  1  0  0  0
 16 17  2  0  0  0
 16 29  1  0  0  0
 17 30  1  0  0  0
 18 37  1  0  0  0
 19 20  1  0  0  0
 20 31  1  0  0  0
 20 32  1  0  0  0
 20 33  1  0  0  0
 21 22  1  0  0  0
 22 34  1  0  0  0
 22 35  1  0  0  0
 22 36  1  0  0  0
M  END
> <s_m_entry_id>
26

> <s_m_entry_name>
P24941.2

$$$$
1ke8_lig_LS4
                    3D
 Structure written by MMmdl.
 40 43  0  0  1  0            999 V2000
   38.9060   11.0840  -14.6550 O   0  0  0  0  0  0
   39.8050   10.2780  -14.4030 C   0  0  0  0  0  0
   40.7240    9.7740  -15.2640 N   0  0  0  0  0  0
   41.5420    8.8850  -14.6080 C   0  0  0  0  0  0
   42.6780    8.0960  -15.1240 C   0  0  0  0  0  0
   43.4700    7.2580  -14.1790 C   0  0  0  0  0  0
   43.1050    7.1970  -12.7360 C   0  0  0  0  0  0
   41.9320    7.9640  -12.2300 C   0  0  0  0  0  0
   41.1640    8.8050  -13.1980 C   0  0  0  0  0  0
   40.0110    9.6570  -13.0310 C   0  0  0  0  0  0
   39.2500    9.8670  -11.9430 C   0  0  0  0  0  0
   37.9490   10.5790  -11.9630 N   0  0  0  0  0  0
   37.0150   10.5620  -10.9860 C   0  0  0  0  0  0
   36.8320    9.4550   -9.9770 C   0  0  0  0  0  0
   35.8040    9.5620   -8.9590 C   0  0  0  0  0  0
   34.9010   10.7370   -8.9530 C   0  0  0  0  0  0
   35.0730   11.8380   -9.9270 C   0  0  0  0  0  0
   36.1320   11.7460  -10.9480 C   0  0  0  0  0  0
   33.6520   10.8180   -7.6960 S   0  0  0  0  0  0
   32.7420   11.9000   -7.9410 O   0  0  0  0  0  0
   33.1090    9.4990   -7.6290 O   0  0  0  0  0  0
   34.4260   11.1500   -6.2500 N   0  5  0  0  0  0
   35.1040   12.4590   -5.9520 C   0  0  0  0  0  0
   36.4810   12.5860   -4.9640 S   0  0  0  0  0  0
   36.6280   14.2580   -5.2100 C   0  0  0  0  0  0
   35.5480   14.7240   -5.9790 C   0  0  0  0  0  0
   34.7320   13.6980   -6.3940 N   0  0  0  0  0  0
   40.7270   10.0700  -16.2300 H   0  0  0  0  0  0
   42.9250    8.1290  -16.1750 H   0  0  0  0  0  0
   44.3160    6.6910  -14.5390 H   0  0  0  0  0  0
   43.6920    6.5960  -12.0550 H   0  0  0  0  0  0
   41.6550    7.9040  -11.1880 H   0  0  0  0  0  0
   39.5770    9.5080  -10.9780 H   0  0  0  0  0  0
   37.6930   11.1420  -12.7610 H   0  0  0  0  0  0
   37.4670    8.5820  -10.0120 H   0  0  0  0  0  0
   35.7010    8.7880   -8.2130 H   0  0  0  0  0  0
   34.4250   12.7010   -9.8860 H   0  0  0  0  0  0
   36.2640   12.5420  -11.6670 H   0  0  0  0  0  0
   37.3890   14.9470   -4.8730 H   0  0  0  0  0  0
   35.4420   15.7810   -6.1770 H   0  0  0  0  0  0
  1  2  2  0  0  0
  2  3  1  0  0  0
  2 10  1  0  0  0
  3  4  1  0  0  0
  3 28  1  0  0  0
  4  5  1  0  0  0
  4  9  2  0  0  0
  5  6  2  0  0  0
  5 29  1  0  0  0
  6  7  1  0  0  0
  6 30  1  0  0  0
  7  8  2  0  0  0
  7 31  1  0  0  0
  8  9  1  0  0  0
  8 32  1  0  0  0
  9 10  1  0  0  0
 10 11  2  0  0  0
 11 12  1  0  0  0
 11 33  1  0  0  0
 12 13  1  0  0  0
 12 34  1  0  0  0
 13 14  1  0  0  0
 13 18  2  0  0  0
 14 15  2  0  0  0
 14 35  1  0  0  0
 15 16  1  0  0  0
 15 36  1  0  0  0
 16 17  2  0  0  0
 16 19  1  0  0  0
 17 18  1  0  0  0
 17 37  1  0  0  0
 18 38  1  0  0  0
 19 20  2  0  0  0
 19 21  2  0  0  0
 19 22  1  0  0  0
 22 23  1  0  0  0
 23 24  1  0  0  0
 23 27  2  0  0  0
 24 25  1  0  0  0
 25 26  2  0  0  0
 25 39  1  0  0  0
 26 27  1  0  0  0
 26 40  1  0  0  0
M  CHG  1  22  -1
M  END
> <s_m_entry_id>
4

> <s_m_entry_name>
1ke8_lig_LS4.1

$$$$
1pxl_lig_CK4
                    3D
 Structure written by MMmdl.
 37 39  0  0  1  0            999 V2000
   36.1470   10.3080   -5.5880 F   0  0  0  0  0  0
   35.0340   10.3080   -6.4540 C   0  0  0  0  0  0
   34.1820   11.3830   -6.1080 F   0  0  0  0  0  0
   34.3440    9.0970   -6.3470 F   0  0  0  0  0  0
   35.5780   10.4850   -7.9530 C   0  0  0  0  0  0
   34.8850   11.3530   -8.8910 C   0  0  0  0  0  0
   35.4020   11.5230  -10.2230 C   0  0  0  0  0  0
   36.7870    9.7870   -8.3820 C   0  0  0  0  0  0
   37.2990    9.9530   -9.6880 C   0  0  0  0  0  0
   36.6530   10.8090  -10.6390 C   0  0  0  0  0  0
   37.2160   11.0000  -11.9990 N   0  0  0  0  0  0
   38.3180   10.6140  -12.8630 C   0  0  0  0  0  0
   38.3320   11.1300  -14.0800 N   0  0  0  0  0  0
   39.3610   10.7980  -14.9350 C   0  0  0  0  0  0
   40.4310    9.9220  -14.6060 C   0  0  0  0  0  0
   39.2860    9.7770  -12.4570 N   0  0  0  0  0  0
   40.3670    9.3820  -13.2620 C   0  0  0  0  0  0
   41.3060    8.4680  -12.6610 C   0  0  0  0  0  0
   40.9300    7.9820  -10.9660 S   0  0  0  0  0  0
   42.5050    7.8060  -13.0430 C   0  0  0  0  0  0
   43.2250    7.9020  -14.4150 C   0  0  0  0  0  0
   43.0810    6.9830  -12.0510 N   0  0  0  0  0  0
   42.3120    7.0230  -10.9310 C   0  0  0  0  0  0
   42.5390    6.3050   -9.6310 C   0  0  0  0  0  0
   33.9854   11.8676   -8.5871 H   0  0  0  0  0  0
   34.8889   12.1651  -10.9235 H   0  0  0  0  0  0
   37.3042    9.1317   -7.6967 H   0  0  0  0  0  0
   38.1949    9.4294   -9.9874 H   0  0  0  0  0  0
   36.7452   11.6005  -12.6607 H   0  0  0  0  0  0
   39.3899   11.2126  -15.9318 H   0  0  0  0  0  0
   41.2001    9.7116  -15.3345 H   0  0  0  0  0  0
   44.1193    7.2791  -14.4009 H   0  0  0  0  0  0
   42.5549    7.5571  -15.2025 H   0  0  0  0  0  0
   43.5070    8.9374  -14.6063 H   0  0  0  0  0  0
   43.4507    5.7112   -9.6976 H   0  0  0  0  0  0
   42.6382    7.0329   -8.8258 H   0  0  0  0  0  0
   41.6931    5.6491   -9.4250 H   0  0  0  0  0  0
  1  2  1  0  0  0
  2  3  1  0  0  0
  2  4  1  0  0  0
  2  5  1  0  0  0
  5  6  2  0  0  0
  5  8  1  0  0  0
  6  7  1  0  0  0
  6 25  1  0  0  0
  7 10  2  0  0  0
  7 26  1  0  0  0
  8  9  2  0  0  0
  8 27  1  0  0  0
  9 10  1  0  0  0
  9 28  1  0  0  0
 10 11  1  0  0  0
 11 12  1  0  0  0
 11 29  1  0  0  0
 12 13  1  0  0  0
 12 16  2  0  0  0
 13 14  2  0  0  0
 14 15  1  0  0  0
 14 30  1  0  0  0
 15 17  2  0  0  0
 15 31  1  0  0  0
 16 17  1  0  0  0
 17 18  1  0  0  0
 18 19  1  0  0  0
 18 20  2  0  0  0
 19 23  1  0  0  0
 20 21  1  0  0  0
 20 22  1  0  0  0
 21 32  1  0  0  0
 21 33  1  0  0  0
 21 34  1  0  0  0
 22 23  2  0  0  0
 23 24  1  0  0  0
 24 35  1  0  0  0
 24 36  1  0  0  0
 24 37  1  0  0  0
M  END
> <s_m_entry_id>
5

> <s_m_entry_name>
1pxl_lig_CK4.1

$$$$
2iw9_lig_4SP
                    3D
 Structure written by MMmdl.
 50 53  0  0  1  0            999 V2000
   38.4450   10.3330  -12.8020 C   0  0  0  0  0  0
   41.4910    8.7990  -15.6820 C   0  0  0  0  0  0
   40.3950    8.1200  -10.0650 C   0  0  0  0  0  0
   40.6950    6.8330   -9.3270 C   0  0  0  0  0  0
   40.1410    6.9260   -7.9000 C   0  0  0  0  0  0
   40.4120    5.6320   -7.1330 C   0  0  0  0  0  0
   40.0420    4.3710   -7.9160 C   0  0  0  0  0  0
   40.5940    4.3940   -9.3440 C   0  0  0  0  0  0
   40.0920    5.6340  -10.0650 C   0  0  0  0  0  0
   35.7690    9.5170   -9.4220 C   0  0  0  0  0  0
   34.9730   10.5880   -8.9950 C   0  0  0  0  0  0
   35.0280   11.7860   -9.7090 C   0  0  0  0  0  0
   35.8430   11.9140  -10.8430 C   0  0  0  0  0  0
   34.5210    9.3780   -6.7600 N   0  0  0  0  0  0
   39.1000    9.5270  -11.9280 N   0  0  0  0  0  0
   40.1720    8.7880  -12.3090 C   0  0  0  0  0  0
   40.8140    7.9870  -11.4150 O   0  0  0  0  0  0
   40.6230    8.8680  -13.7080 C   0  0  0  0  0  0
   41.6120    8.3000  -14.4250 N   0  0  0  0  0  0
   40.4340    9.6610  -15.7720 N   0  0  0  0  0  0
   39.9070    9.7110  -14.5350 C   0  0  0  0  0  0
   38.8360   10.4210  -14.1050 N   0  0  0  0  0  0
   37.3840   11.0540  -12.3820 N   0  0  0  0  0  0
   36.6290   10.8520  -11.2680 C   0  0  0  0  0  0
   36.5790    9.6350  -10.5620 C   0  0  0  0  0  0
   34.0210   10.4770   -7.6830 S   0  0  0  0  0  0
   32.6390   10.1680   -8.1000 O   0  0  0  0  0  0
   34.0620   11.7400   -6.9430 O   0  0  0  0  0  0
   42.1860    8.4980  -16.4520 H   0  0  0  0  0  0
   39.3240    8.3180  -10.0290 H   0  0  0  0  0  0
   40.9320    8.9430   -9.5920 H   0  0  0  0  0  0
   41.7700    6.6570   -9.3250 H   0  0  0  0  0  0
   40.6210    7.7530   -7.3770 H   0  0  0  0  0  0
   39.0660    7.0960   -7.9380 H   0  0  0  0  0  0
   41.4720    5.5670   -6.8910 H   0  0  0  0  0  0
   39.8290    5.6280   -6.2120 H   0  0  0  0  0  0
   40.4490    3.4960   -7.4090 H   0  0  0  0  0  0
   38.9570    4.2840   -7.9730 H   0  0  0  0  0  0
   41.6830    4.4110   -9.3120 H   0  0  0  0  0  0
   40.2590    3.5050   -9.8770 H   0  0  0  0  0  0
   39.0040    5.6940  -10.0290 H   0  0  0  0  0  0
   40.4210    5.6430  -11.1040 H   0  0  0  0  0  0
   35.7640    8.5880   -8.8720 H   0  0  0  0  0  0
   34.4380   12.6320   -9.3900 H   0  0  0  0  0  0
   35.8630   12.8440  -11.3920 H   0  0  0  0  0  0
   34.0340    9.1840   -5.8970 H   0  0  0  0  0  0
   35.3390    8.8410   -7.0100 H   0  0  0  0  0  0
   37.0690   11.8490  -12.9190 H   0  0  0  0  0  0
   37.1640    8.7920  -10.8980 H   0  0  0  0  0  0
   40.2124   10.0978  -16.6553 H   0  0  0  0  0  0
  1 15  1  0  0  0
  1 22  2  0  0  0
  1 23  1  0  0  0
  2 19  2  0  0  0
  2 20  1  0  0  0
  2 29  1  0  0  0
  3  4  1  0  0  0
  3 17  1  0  0  0
  3 30  1  0  0  0
  3 31  1  0  0  0
  4  5  1  0  0  0
  4  9  1  0  0  0
  4 32  1  0  0  0
  5  6  1  0  0  0
  5 33  1  0  0  0
  5 34  1  0  0  0
  6  7  1  0  0  0
  6 35  1  0  0  0
  6 36  1  0  0  0
  7  8  1  0  0  0
  7 37  1  0  0  0
  7 38  1  0  0  0
  8  9  1  0  0  0
  8 39  1  0  0  0
  8 40  1  0  0  0
  9 41  1  0  0  0
  9 42  1  0  0  0
 10 11  1  0  0  0
 10 25  2  0  0  0
 10 43  1  0  0  0
 11 12  2  0  0  0
 11 26  1  0  0  0
 12 13  1  0  0  0
 12 44  1  0  0  0
 13 24  2  0  0  0
 13 45  1  0  0  0
 14 26  1  0  0  0
 14 46  1  0  0  0
 14 47  1  0  0  0
 15 16  2  0  0  0
 16 17  1  0  0  0
 16 18  1  0  0  0
 18 19  1  0  0  0
 18 21  2  0  0  0
 20 21  1  0  0  0
 20 50  1  0  0  0
 21 22  1  0  0  0
 23 24  1  0  0  0
 23 48  1  0  0  0
 24 25  1  0  0  0
 25 49  1  0  0  0
 26 27  2  0  0  0
 26 28  2  0  0  0
M  END
> <s_m_entry_id>
10

> <s_m_entry_name>
2iw9_lig_4SP.1

$$$$
2vto_lig_LZ8
                    3D
 Structure written by MMmdl.
 37 39  0  0  1  0            999 V2000
   34.0880   11.9350   -8.0540 F   0  0  0  0  0  0
   34.9430   11.7250   -9.0740 C   0  0  0  0  0  0
   35.3950   10.4430   -9.3230 C   0  0  0  0  0  0
   36.2620   10.2290  -10.3810 C   0  0  0  0  0  0
   36.6600   11.3000  -11.1900 C   0  0  0  0  0  0
   37.5500   11.0900  -12.2620 N   0  0  0  0  0  0
   38.6670   10.3590  -12.1730 C   0  0  0  0  0  0
   39.0170    9.8250  -11.1210 O   0  0  0  0  0  0
   39.4640   10.2180  -13.4130 C   0  0  0  0  0  0
   39.1490   10.9190  -14.4960 N   0  0  0  0  0  0
   40.0550   10.5620  -15.4420 N   0  0  0  0  0  0
   40.9280    9.6690  -14.9860 C   0  0  0  0  0  0
   40.5850    9.4120  -13.6690 C   0  0  0  0  0  0
   41.1710    8.5610  -12.7490 N   0  0  0  0  0  0
   42.2890    7.8210  -12.9270 C   0  0  0  0  0  0
   42.9440    7.8360  -13.9700 O   0  0  0  0  0  0
   42.7020    6.9800  -11.7610 C   0  0  0  0  0  0
   44.0380    6.9010  -11.3880 C   0  0  0  0  0  0
   44.4140    6.1340  -10.3000 C   0  0  0  0  0  0
   43.4630    5.4390   -9.5790 C   0  0  0  0  0  0
   42.1320    5.5130   -9.9400 C   0  0  0  0  0  0
   41.7500    6.2810  -11.0250 C   0  0  0  0  0  0
   36.1890   12.5850  -10.9110 C   0  0  0  0  0  0
   35.3320   12.7980   -9.8490 C   0  0  0  0  0  0
   35.0710    9.6240   -8.6970 H   0  0  0  0  0  0
   36.6330    9.2360  -10.5840 H   0  0  0  0  0  0
   37.3600   11.5040  -13.1640 H   0  0  0  0  0  0
   40.0100   10.9690  -16.3650 H   0  0  0  0  0  0
   41.7100    9.2980  -15.6330 H   0  0  0  0  0  0
   40.7590    8.4460  -11.8340 H   0  0  0  0  0  0
   44.7880    7.4400  -11.9480 H   0  0  0  0  0  0
   45.4530    6.0770  -10.0130 H   0  0  0  0  0  0
   43.7600    4.8370   -8.7320 H   0  0  0  0  0  0
   41.3880    4.9720   -9.3740 H   0  0  0  0  0  0
   40.7070    6.3350  -11.3010 H   0  0  0  0  0  0
   36.4950   13.4180  -11.5270 H   0  0  0  0  0  0
   34.9660   13.7880   -9.6230 H   0  0  0  0  0  0
  1  2  1  0  0  0
  2  3  1  0  0  0
  2 24  2  0  0  0
  3  4  2  0  0  0
  3 25  1  0  0  0
  4  5  1  0  0  0
  4 26  1  0  0  0
  5  6  1  0  0  0
  5 23  2  0  0  0
  6  7  1  0  0  0
  6 27  1  0  0  0
  7  8  2  0  0  0
  7  9  1  0  0  0
  9 10  2  0  0  0
  9 13  1  0  0  0
 10 11  1  0  0  0
 11 12  1  0  0  0
 11 28  1  0  0  0
 12 13  2  0  0  0
 12 29  1  0  0  0
 13 14  1  0  0  0
 14 15  1  0  0  0
 14 30  1  0  0  0
 15 16  2  0  0  0
 15 17  1  0  0  0
 17 18  1  0  0  0
 17 22  2  0  0  0
 18 19  2  0  0  0
 18 31  1  0  0  0
 19 20  1  0  0  0
 19 32  1  0  0  0
 20 21  2  0  0  0
 20 33  1  0  0  0
 21 22  1  0  0  0
 21 34  1  0  0  0
 22 35  1  0  0  0
 23 24  1  0  0  0
 23 36  1  0  0  0
 24 37  1  0  0  0
M  END
> <s_m_entry_id>
13

> <s_m_entry_name>
2vto_lig_LZ8.1

$$$$
3ezv_lig_EZV
                    3D
 Structure written by MMmdl.
 58 63  0  0  1  0            999 V2000
   41.9440    7.7330  -12.8200 C   0  0  0  0  0  0
   42.4660    7.7910  -14.0890 C   0  0  0  0  0  0
   41.9320    8.6290  -15.0400 C   0  0  0  0  0  0
   40.8680    9.3880  -14.6220 C   0  0  0  0  0  0
   40.3170    9.3290  -13.3590 C   0  0  0  0  0  0
   40.8630    8.4810  -12.4140 C   0  0  0  0  0  0
   40.1210   10.2980  -15.3090 N   0  0  0  0  0  0
   39.1250   10.8380  -14.5920 N   0  0  0  0  0  0
   39.2400   10.2480  -13.3950 C   0  0  0  0  0  0
   38.2920   10.5240  -12.2950 C   0  0  0  0  0  0
   37.2950   11.3690  -12.3850 N   0  0  0  0  0  0
   36.6570   11.3290  -11.1750 C   0  0  0  0  0  0
   37.2770   10.4360  -10.3320 C   0  0  0  0  0  0
   38.3100    9.9340  -11.0640 N   0  0  0  0  0  0
   35.5480   12.0370  -10.7510 C   0  0  0  0  0  0
   35.1320   11.7870   -9.4650 C   0  0  0  0  0  0
   35.7690   10.8900   -8.6430 C   0  0  0  0  0  0
   36.8720   10.1760   -9.0450 C   0  0  0  0  0  0
   43.5280    6.9010  -14.4690 C   0  0  0  0  0  0
   37.5270    9.2670   -8.2120 N   0  0  0  0  0  0
   37.7250    8.0450   -8.9500 C   0  0  0  0  0  0
   38.6190    7.1730   -8.1040 C   0  0  0  0  0  0
   37.9170    6.9350   -6.8140 N   0  3  0  0  0  0
   37.5650    8.1760   -6.0770 C   0  0  0  0  0  0
   36.7720    9.0760   -6.9940 C   0  0  0  0  0  0
   38.6820    6.0000   -5.9580 C   0  0  0  0  0  0
   44.5370    6.5150  -13.6190 C   0  0  0  0  0  0
   45.4890    5.6140  -14.0390 C   0  0  0  0  0  0
   45.4510    5.0890  -15.3110 C   0  0  0  0  0  0
   44.4430    5.4780  -16.1650 C   0  0  0  0  0  0
   43.4900    6.3700  -15.7360 C   0  0  0  0  0  0
   46.4180    4.1630  -15.7460 N   0  0  0  0  0  0
   42.3840    7.0760  -12.0850 H   0  0  0  0  0  0
   42.3520    8.6550  -16.0340 H   0  0  0  0  0  0
   40.4890    8.3850  -11.4050 H   0  0  0  0  0  0
   40.3430   10.5100  -16.2710 H   0  0  0  0  0  0
   37.1440   11.8830  -13.2420 H   0  0  0  0  0  0
   35.0650   12.7350  -11.4180 H   0  0  0  0  0  0
   34.2720   12.3060   -9.0650 H   0  0  0  0  0  0
   35.4060   10.7240   -7.6400 H   0  0  0  0  0  0
   36.7620    7.5630   -9.1230 H   0  0  0  0  0  0
   38.1940    8.2700   -9.9080 H   0  0  0  0  0  0
   38.8020    6.2300   -8.6180 H   0  0  0  0  0  0
   39.5670    7.6830   -7.9330 H   0  0  0  0  0  0
   37.1130    6.3440   -6.9730 H   0  0  0  0  0  0
   36.9680    7.9220   -5.2010 H   0  0  0  0  0  0
   38.4770    8.6810   -5.7590 H   0  0  0  0  0  0
   36.6050   10.0410   -6.5160 H   0  0  0  0  0  0
   35.8120    8.6170   -7.2300 H   0  0  0  0  0  0
   38.1460    5.8430   -5.0230 H   0  0  0  0  0  0
   38.7980    5.0460   -6.4740 H   0  0  0  0  0  0
   39.6650    6.4200   -5.7480 H   0  0  0  0  0  0
   44.5830    6.9190  -12.6180 H   0  0  0  0  0  0
   46.2790    5.3110  -13.3680 H   0  0  0  0  0  0
   44.4030    5.0820  -17.1690 H   0  0  0  0  0  0
   42.7000    6.6510  -16.4160 H   0  0  0  0  0  0
   46.3730    3.7880  -16.6830 H   0  0  0  0  0  0
   47.1560    3.8720  -15.1220 H   0  0  0  0  0  0
  1  2  1  0  0  0
  1  6  2  0  0  0
  1 33  1  0  0  0
  2  3  2  0  0  0
  2 19  1  0  0  0
  3  4  1  0  0  0
  3 34  1  0  0  0
  4  5  2  0  0  0
  4  7  1  0  0  0
  5  6  1  0  0  0
  5  9  1  0  0  0
  6 35  1  0  0  0
  7  8  1  0  0  0
  7 36  1  0  0  0
  8  9  2  0  0  0
  9 10  1  0  0  0
 10 11  1  0  0  0
 10 14  2  0  0  0
 11 12  1  0  0  0
 11 37  1  0  0  0
 12 13  2  0  0  0
 12 15  1  0  0  0
 13 14  1  0  0  0
 13 18  1  0  0  0
 15 16  2  0  0  0
 15 38  1  0  0  0
 16 17  1  0  0  0
 16 39  1  0  0  0
 17 18  2  0  0  0
 17 40  1  0  0  0
 18 20  1  0  0  0
 19 27  1  0  0  0
 19 31  2  0  0  0
 20 21  1  0  0  0
 20 25  1  0  0  0
 21 22  1  0  0  0
 21 41  1  0  0  0
 21 42  1  0  0  0
 22 23  1  0  0  0
 22 43  1  0  0  0
 22 44  1  0  0  0
 23 24  1  0  0  0
 23 26  1  0  0  0
 23 45  1  0  0  0
 24 25  1  0  0  0
 24 46  1  0  0  0
 24 47  1  0  0  0
 25 48  1  0  0  0
 25 49  1  0  0  0
 26 50  1  0  0  0
 26 51  1  0  0  0
 26 52  1  0  0  0
 27 28  2  0  0  0
 27 53  1  0  0  0
 28 29  1  0  0  0
 28 54  1  0  0  0
 29 30  2  0  0  0
 29 32  1  0  0  0
 30 31  1  0  0  0
 30 55  1  0  0  0
 31 56  1  0  0  0
 32 57  1  0  0  0
 32 58  1  0  0  0
M  CHG  1  23   1
M  END
> <s_m_entry_id>
20

> <s_m_entry_name>
3ezv_lig_EZV.1

$$$$
3lfq_lig_A28
                    3D
 Structure written by MMmdl.
 38 40  0  0  1  0            999 V2000
   41.3640    7.6650  -12.4450 C   0  0  0  0  0  0
   42.0200    7.7300  -13.6850 C   0  0  0  0  0  0
   41.6280    8.6630  -14.6520 C   0  0  0  0  0  0
   40.2790    8.5320  -12.2100 C   0  0  0  0  0  0
   39.9690   10.4630  -15.1520 N   0  0  0  0  0  0
   39.0610   11.0180  -14.5220 N   0  0  0  0  0  0
   38.9530   10.4930  -13.3020 C   0  0  0  0  0  0
   39.9190    9.4970  -13.1700 C   0  0  0  0  0  0
   40.5820    9.5470  -14.3930 C   0  0  0  0  0  0
   41.6980    6.6510  -11.5270 C   0  0  0  0  0  0
   43.0240    6.3900  -11.1530 C   0  0  0  0  0  0
   43.3190    5.3560  -10.2580 C   0  0  0  0  0  0
   42.2980    4.5590   -9.7400 C   0  0  0  0  0  0
   40.9780    4.7990  -10.1230 C   0  0  0  0  0  0
   40.6890    5.8260  -11.0250 C   0  0  0  0  0  0
   43.0310    6.8920  -13.9840 F   0  0  0  0  0  0
   42.2860    8.7160  -15.8250 F   0  0  0  0  0  0
   37.9500   10.8240  -12.4730 N   0  0  0  0  0  0
   37.9720   10.7970  -11.1290 C   0  0  0  0  0  0
   36.6640   11.2430  -10.4590 C   0  0  0  0  0  0
   38.9270   10.4670  -10.4310 O   0  0  0  0  0  0
   35.7090   10.0630  -10.2850 C   0  0  0  0  0  0
   34.7250   10.3330   -9.1480 C   0  0  0  0  0  0
   39.7190    8.4590  -11.2900 H   0  0  0  0  0  0
   40.1540   10.7270  -16.1090 H   0  0  0  0  0  0
   43.8270    6.9890  -11.5560 H   0  0  0  0  0  0
   44.3430    5.1720   -9.9650 H   0  0  0  0  0  0
   42.5320    3.7630   -9.0480 H   0  0  0  0  0  0
   40.1810    4.1900   -9.7230 H   0  0  0  0  0  0
   39.6650    5.9760  -11.3320 H   0  0  0  0  0  0
   37.0640   11.1300  -12.8500 H   0  0  0  0  0  0
   36.8820   11.6640   -9.4780 H   0  0  0  0  0  0
   36.1780   11.9990  -11.0770 H   0  0  0  0  0  0
   35.1490    9.9090  -11.2080 H   0  0  0  0  0  0
   36.2800    9.1640  -10.0530 H   0  0  0  0  0  0
   34.0530    9.4810   -9.0390 H   0  0  0  0  0  0
   35.2750   10.4820   -8.2190 H   0  0  0  0  0  0
   34.1450   11.2270   -9.3730 H   0  0  0  0  0  0
  1  2  1  0  0  0
  1  4  2  0  0  0
  1 10  1  0  0  0
  2  3  2  0  0  0
  2 16  1  0  0  0
  3  9  1  0  0  0
  3 17  1  0  0  0
  4  8  1  0  0  0
  4 24  1  0  0  0
  5  6  1  0  0  0
  5  9  1  0  0  0
  5 25  1  0  0  0
  6  7  2  0  0  0
  7  8  1  0  0  0
  7 18  1  0  0  0
  8  9  2  0  0  0
 10 11  1  0  0  0
 10 15  2  0  0  0
 11 12  2  0  0  0
 11 26  1  0  0  0
 12 13  1  0  0  0
 12 27  1  0  0  0
 13 14  2  0  0  0
 13 28  1  0  0  0
 14 15  1  0  0  0
 14 29  1  0  0  0
 15 30  1  0  0  0
 18 19  1  0  0  0
 18 31  1  0  0  0
 19 20  1  0  0  0
 19 21  2  0  0  0
 20 22  1  0  0  0
 20 32  1  0  0  0
 20 33  1  0  0  0
 22 23  1  0  0  0
 22 34  1  0  0  0
 22 35  1  0  0  0
 23 36  1  0  0  0
 23 37  1  0  0  0
 23 38  1  0  0  0
M  END
> <s_m_entry_id>
21

> <s_m_entry_name>
3lfq_lig_A28.1

$$$$
3py0_lig_SU9
                    3D
 Structure written by MMmdl.
 29 31  0  0  1  0            999 V2000
   37.0230   11.4560  -11.8530 N   0  0  0  0  0  0
   36.0060   11.8370  -11.1020 C   0  0  0  0  0  0
   36.0530   11.2600   -9.8790 N   0  0  0  0  0  0
   37.1780   10.4640   -9.8650 C   0  0  0  0  0  0
   37.7690   10.6000  -11.1100 C   0  0  0  0  0  0
   38.9810    9.8940  -11.4890 C   0  0  0  0  0  0
   39.6810    9.9090  -12.6780 C   0  0  0  0  0  0
   39.4130   10.6850  -13.9290 C   0  0  0  0  0  0
   38.5160   11.4990  -14.1750 O   0  0  0  0  0  0
   40.3660   10.3610  -14.8720 N   0  0  0  0  0  0
   41.2500    9.4260  -14.3270 C   0  0  0  0  0  0
   42.3740    8.8040  -14.9300 C   0  0  0  0  0  0
   43.1090    7.8770  -14.1420 C   0  0  0  0  0  0
   42.7630    7.5480  -12.7820 C   0  0  0  0  0  0
   43.5620    6.6310  -12.1260 O   0  0  0  0  0  0
   43.0270    5.8710  -11.0450 C   0  0  0  0  0  0
   41.6150    8.1990  -12.2150 C   0  0  0  0  0  0
   40.8690    9.1270  -12.9820 C   0  0  0  0  0  0
   37.1160   11.8090  -12.7950 H   0  0  0  0  0  0
   35.2740   12.5270  -11.4940 H   0  0  0  0  0  0
   37.4280    9.8970   -8.9790 H   0  0  0  0  0  0
   39.4660    9.2360  -10.7830 H   0  0  0  0  0  0
   40.3380   10.7900  -15.7860 H   0  0  0  0  0  0
   42.6420    9.0430  -15.9480 H   0  0  0  0  0  0
   43.9730    7.3800  -14.5580 H   0  0  0  0  0  0
   43.7960    5.2050  -10.6530 H   0  0  0  0  0  0
   42.6950    6.5450  -10.2550 H   0  0  0  0  0  0
   42.1810    5.2810  -11.3970 H   0  0  0  0  0  0
   41.3170    7.9820  -11.2010 H   0  0  0  0  0  0
  1  2  1  0  0  0
  1  5  1  0  0  0
  1 19  1  0  0  0
  2  3  2  0  0  0
  2 20  1  0  0  0
  3  4  1  0  0  0
  4  5  2  0  0  0
  4 21  1  0  0  0
  5  6  1  0  0  0
  6  7  2  0  0  0
  6 22  1  0  0  0
  7  8  1  0  0  0
  7 18  1  0  0  0
  8  9  2  0  0  0
  8 10  1  0  0  0
 10 11  1  0  0  0
 10 23  1  0  0  0
 11 12  1  0  0  0
 11 18  2  0  0  0
 12 13  2  0  0  0
 12 24  1  0  0  0
 13 14  1  0  0  0
 13 25  1  0  0  0
 14 15  1  0  0  0
 14 17  2  0  0  0
 15 16  1  0  0  0
 16 26  1  0  0  0
 16 27  1  0  0  0
 16 28  1  0  0  0
 17 18  1  0  0  0
 17 29  1  0  0  0
M  END
> <s_m_entry_id>
23

> <s_m_entry_name>
3py0_lig_SU9.1

$$$$
3unj_lig_0BX
                    3D
 Structure written by MMmdl.
 36 38  0  0  1  0            999 V2000
   35.9840   11.9310   -8.7300 C   0  0  0  0  0  0
   35.3420   12.1300   -7.3970 C   0  0  0  0  0  0
   35.6840   12.8540   -9.7110 C   0  0  0  0  0  0
   36.2300   12.7520  -10.9730 C   0  0  0  0  0  0
   37.0990   11.7160  -11.2640 C   0  0  0  0  0  0
   37.4160   10.7700  -10.2830 C   0  0  0  0  0  0
   36.8540   10.8740   -9.0050 C   0  0  0  0  0  0
   37.6090   11.7070  -12.6010 N   0  0  0  0  0  0
   38.6960   10.9090  -13.0690 C   0  0  0  0  0  0
   38.9310   10.8420  -14.3840 N   0  0  0  0  0  0
   39.9410   10.1010  -14.8740 C   0  0  0  0  0  0
   40.7320    9.3860  -13.9730 C   0  0  0  0  0  0
   40.4680    9.4720  -12.6030 C   0  0  0  0  0  0
   39.4490   10.2450  -12.1920 N   0  0  0  0  0  0
   41.2180    8.7630  -11.6070 N   0  0  0  0  0  0
   42.4170    8.0190  -11.8480 C   0  0  0  0  0  0
   43.4700    8.5850  -12.5550 C   0  0  0  0  0  0
   44.6460    7.8810  -12.7870 C   0  0  0  0  0  0
   44.7870    6.5930  -12.2810 C   0  0  0  0  0  0
   43.7350    6.0410  -11.5540 C   0  0  0  0  0  0
   42.5500    6.7370  -11.3330 C   0  0  0  0  0  0
   34.3180   12.8760   -7.3190 O   0  0  0  0  0  0
   35.8070   11.5810   -6.3600 O   0  5  0  0  0  0
   35.0110   13.6710   -9.4970 H   0  0  0  0  0  0
   35.9800   13.4800  -11.7300 H   0  0  0  0  0  0
   38.0930    9.9610  -10.5120 H   0  0  0  0  0  0
   37.0850   10.1510   -8.2370 H   0  0  0  0  0  0
   40.1220   10.0710  -15.9380 H   0  0  0  0  0  0
   41.5430    8.7720  -14.3350 H   0  0  0  0  0  0
   40.9090    8.7640  -10.6460 H   0  0  0  0  0  0
   43.3850    9.5920  -12.9360 H   0  0  0  0  0  0
   45.4430    8.3340  -13.3570 H   0  0  0  0  0  0
   45.6980    6.0410  -12.4550 H   0  0  0  0  0  0
   43.8260    5.0450  -11.1450 H   0  0  0  0  0  0
   41.7420    6.2940  -10.7700 H   0  0  0  0  0  0
   37.1931   12.3009  -13.3042 H   0  0  0  0  0  0
  1  2  1  0  0  0
  1  3  1  0  0  0
  1  7  2  0  0  0
  2 22  2  0  0  0
  2 23  1  0  0  0
  3  4  2  0  0  0
  3 24  1  0  0  0
  4  5  1  0  0  0
  4 25  1  0  0  0
  5  6  2  0  0  0
  5  8  1  0  0  0
  6  7  1  0  0  0
  6 26  1  0  0  0
  7 27  1  0  0  0
  8  9  1  0  0  0
  8 36  1  0  0  0
  9 10  1  0  0  0
  9 14  2  0  0  0
 10 11  2  0  0  0
 11 12  1  0  0  0
 11 28  1  0  0  0
 12 13  2  0  0  0
 12 29  1  0  0  0
 13 14  1  0  0  0
 13 15  1  0  0  0
 15 16  1  0  0  0
 15 30  1  0  0  0
 16 17  1  0  0  0
 16 21  2  0  0  0
 17 18  2  0  0  0
 17 31  1  0  0  0
 18 19  1  0  0  0
 18 32  1  0  0  0
 19 20  2  0  0  0
 19 33  1  0  0  0
 20 21  1  0  0  0
 20 34  1  0  0  0
 21 35  1  0  0  0
M  CHG  1  23  -1
M  END
> <s_m_entry_id>
24

> <s_m_entry_name>
3unj_lig_0BX.1

$$$$
1fvt_lig_106
                    3D
 Structure written by MMmdl.
 32 34  0  0  1  0            999 V2000
   40.5760    9.9930  -15.5280 N   0  0  0  0  0  0
   39.7040   10.4960  -14.6080 C   0  0  0  0  0  0
   39.9520    9.8500  -13.2980 C   0  0  0  0  0  0
   41.7880    8.1020  -12.6060 C   0  0  0  0  0  0
   42.9280    7.3320  -13.1730 C   0  0  0  0  0  0
   43.3110    7.4350  -14.6070 C   0  0  0  0  0  0
   42.5190    8.3170  -15.4840 C   0  0  0  0  0  0
   41.4110    9.1160  -14.9240 C   0  0  0  0  0  0
   41.0630    8.9960  -13.5240 C   0  0  0  0  0  0
   38.8350   11.3520  -14.7510 O   0  0  0  0  0  0
   39.2210   10.0950  -12.0670 N   0  0  0  0  0  0
   43.8710    6.1500  -12.0940 Br  0  0  0  0  0  0
   38.0050   10.3380  -12.0420 N   0  0  0  0  0  0
   37.2090   10.3250  -10.9450 C   0  0  0  0  0  0
   36.1770   11.3750  -10.8960 C   0  0  0  0  0  0
   35.1980   11.3790   -9.8020 C   0  0  0  0  0  0
   35.2720   10.3560   -8.7280 C   0  0  0  0  0  0
   36.3170    9.3020   -8.7600 C   0  0  0  0  0  0
   37.2810    9.2890   -9.8570 C   0  0  0  0  0  0
   33.8490   10.2290   -7.6860 S   0  0  0  0  0  0
   32.7720    9.8000   -8.5350 O   0  0  0  0  0  0
   33.7460   11.5170   -7.0650 O   0  0  0  0  0  0
   34.0410    9.1420   -6.4690 N   0  0  0  0  0  0
   41.5260    7.9910  -11.5640 H   0  0  0  0  0  0
   44.1520    6.8710  -14.9830 H   0  0  0  0  0  0
   42.7490    8.3790  -16.5370 H   0  0  0  0  0  0
   36.1440   12.1360  -11.6620 H   0  0  0  0  0  0
   34.4200   12.1280   -9.7760 H   0  0  0  0  0  0
   36.3570    8.5580   -7.9780 H   0  0  0  0  0  0
   38.0490    8.5300   -9.8840 H   0  0  0  0  0  0
   33.2920    8.9850   -5.8100 H   0  0  0  0  0  0
   34.9080    8.6310   -6.3800 H   0  0  0  0  0  0
  1  2  1  0  0  0
  1  8  2  0  0  0
  2  3  1  0  0  0
  2 10  2  0  0  0
  3  9  2  0  0  0
  3 11  1  0  0  0
  4  5  2  0  0  0
  4  9  1  0  0  0
  4 24  1  0  0  0
  5  6  1  0  0  0
  5 12  1  0  0  0
  6  7  2  0  0  0
  6 25  1  0  0  0
  7  8  1  0  0  0
  7 26  1  0  0  0
  8  9  1  0  0  0
 11 13  2  0  0  0
 13 14  1  0  0  0
 14 15  2  0  0  0
 14 19  1  0  0  0
 15 16  1  0  0  0
 15 27  1  0  0  0
 16 17  2  0  0  0
 16 28  1  0  0  0
 17 18  1  0  0  0
 17 20  1  0  0  0
 18 19  2  0  0  0
 18 29  1  0  0  0
 19 30  1  0  0  0
 20 21  2  0  0  0
 20 22  2  0  0  0
 20 23  1  0  0  0
 23 31  1  0  0  0
 23 32  1  0  0  0
M  END
> <s_m_entry_id>
25

> <s_m_entry_name>
P24941.1

$$$$
1ke7_lig_LS3
                    3D
 Structure written by MMmdl.
 43 47  0  0  1  0            999 V2000
   38.8700   11.0780  -15.1670 O   0  0  0  0  0  0
   39.7310   10.3580  -14.6870 C   0  0  0  0  0  0
   40.8170    9.8290  -15.3470 N   0  0  0  0  0  0
   41.5160    8.9980  -14.5130 C   0  0  0  0  0  0
   42.7430    8.1940  -14.7390 C   0  0  0  0  0  0
   43.2440    7.3250  -13.6310 C   0  0  0  0  0  0
   42.4870    7.1870  -12.3360 C   0  0  0  0  0  0
   42.9570    6.3040  -11.2760 C   0  0  0  0  0  0
   44.2810    6.0090  -11.0710 O   0  0  0  0  0  0
   44.3220    5.3450   -9.8710 C   0  0  0  0  0  0
   43.0840    5.0240   -9.4360 N   0  0  0  0  0  0
   42.2010    5.6130  -10.2710 C   0  0  0  0  0  0
   41.2640    8.0330  -12.1680 C   0  0  0  0  0  0
   40.8260    8.9580  -13.2350 C   0  0  0  0  0  0
   39.7340    9.9100  -13.2600 C   0  0  0  0  0  0
   38.9510   10.3130  -12.2330 C   0  0  0  0  0  0
   37.6800   11.0710  -12.1990 N   0  0  0  0  0  0
   36.8670   11.2290  -11.1000 C   0  0  0  0  0  0
   36.4950   10.1090  -10.1730 C   0  0  0  0  0  0
   35.6280   10.3780   -9.0260 C   0  0  0  0  0  0
   35.1920    9.4030   -8.0020 C   0  0  0  0  0  0
   33.6560    9.9680   -7.2880 S   0  0  0  0  0  0
   33.6030    9.7170   -5.8720 O   0  0  0  0  0  0
   32.6090    9.5030   -8.1530 O   0  0  0  0  0  0
   34.0650   11.6850   -7.6910 C   0  0  0  0  0  0
   35.0510   11.7120   -8.8120 C   0  0  0  0  0  0
   35.4270   12.8480   -9.6870 C   0  0  0  0  0  0
   36.3220   12.5920  -10.8410 C   0  0  0  0  0  0
   40.9920   10.0770  -16.3110 H   0  0  0  0  0  0
   43.2550    8.2460  -15.6890 H   0  0  0  0  0  0
   44.1680    6.7780  -13.7490 H   0  0  0  0  0  0
   45.1880    5.0750   -9.2850 H   0  0  0  0  0  0
   41.1220    5.6390  -10.2950 H   0  0  0  0  0  0
   40.6860    7.9720  -11.2570 H   0  0  0  0  0  0
   39.2320   10.0810  -11.2160 H   0  0  0  0  0  0
   37.3430   11.5290  -13.0330 H   0  0  0  0  0  0
   36.8670    9.1110  -10.3550 H   0  0  0  0  0  0
   35.0470    8.4280   -8.4670 H   0  0  0  0  0  0
   35.9530    9.3250   -7.2260 H   0  0  0  0  0  0
   33.1610   12.2150   -7.9900 H   0  0  0  0  0  0
   34.4970   12.1720   -6.8160 H   0  0  0  0  0  0
   35.0500   13.8370   -9.4790 H   0  0  0  0  0  0
   36.5790   13.4100  -11.4990 H   0  0  0  0  0  0
  1  2  2  0  0  0
  2  3  1  0  0  0
  2 15  1  0  0  0
  3  4  1  0  0  0
  3 29  1  0  0  0
  4  5  2  0  0  0
  4 14  1  0  0  0
  5  6  1  0  0  0
  5 30  1  0  0  0
  6  7  2  0  0  0
  6 31  1  0  0  0
  7  8  1  0  0  0
  7 13  1  0  0  0
  8  9  1  0  0  0
  8 12  2  0  0  0
  9 10  1  0  0  0
 10 11  2  0  0  0
 10 32  1  0  0  0
 11 12  1  0  0  0
 12 33  1  0  0  0
 13 14  2  0  0  0
 13 34  1  0  0  0
 14 15  1  0  0  0
 15 16  2  0  0  0
 16 17  1  0  0  0
 16 35  1  0  0  0
 17 18  1  0  0  0
 17 36  1  0  0  0
 18 19  2  0  0  0
 18 28  1  0  0  0
 19 20  1  0  0  0
 19 37  1  0  0  0
 20 21  1  0  0  0
 20 26  2  0  0  0
 21 22  1  0  0  0
 21 38  1  0  0  0
 21 39  1  0  0  0
 22 23  2  0  0  0
 22 24  2  0  0  0
 22 25  1  0  0  0
 25 26  1  0  0  0
 25 40  1  0  0  0
 25 41  1  0  0  0
 26 27  1  0  0  0
 27 28  2  0  0  0
 27 42  1  0  0  0
 28 43  1  0  0  0
M  END
> <s_m_entry_id>
27

> <s_m_entry_name>
P24941.3

$$$$
2bhe_lig_BRY
                    3D
 Structure written by MMmdl.
 30 33  0  0  1  0            999 V2000
   37.6550    9.8580   -9.9400 C   0  0  0  0  0  0
   38.8700    9.3880  -10.6400 C   0  0  0  0  0  0
   36.9380   10.6080  -10.8580 C   0  0  0  0  0  0
   37.5740   10.6890  -12.1060 N   0  0  0  0  0  0
   35.6890   11.2250  -10.5110 C   0  0  0  0  0  0
   35.2600   11.0290   -9.1800 C   0  0  0  0  0  0
   36.0130   10.2540   -8.2670 C   0  0  0  0  0  0
   37.2450    9.6640   -8.6340 C   0  0  0  0  0  0
   38.7700    9.9540  -12.0530 C   0  0  0  0  0  0
   39.5890    9.8450  -13.0700 C   0  0  0  0  0  0
   39.3550   10.5360  -14.3620 C   0  0  0  0  0  0
   40.3320   10.1260  -15.2430 N   0  0  0  0  0  0
   41.3010    9.3580  -14.5740 C   0  0  0  0  0  0
   40.8970    9.1160  -13.2420 C   0  0  0  0  0  0
   42.4130    8.8250  -15.1280 C   0  0  0  0  0  0
   43.2420    8.0370  -14.3150 C   0  0  0  0  0  0
   42.9000    7.8130  -12.9680 C   0  0  0  0  0  0
   41.7070    8.3250  -12.4050 C   0  0  0  0  0  0
   38.3220   11.1670  -14.6860 O   0  0  0  0  0  0
   39.7600    8.6880  -10.2040 O   0  0  0  0  0  0
   44.0210    6.7990  -11.9170 Br  0  0  0  0  0  0
   35.1440   11.7940  -11.2490 H   0  0  0  0  0  0
   34.3370   11.4760   -8.8390 H   0  0  0  0  0  0
   35.6500   10.1020   -7.2610 H   0  0  0  0  0  0
   37.8570    9.0870   -7.9570 H   0  0  0  0  0  0
   42.6390    9.0100  -16.1680 H   0  0  0  0  0  0
   44.1430    7.6030  -14.7230 H   0  0  0  0  0  0
   41.4060    8.1350  -11.3860 H   0  0  0  0  0  0
   37.1512   11.2188  -12.8548 H   0  0  0  0  0  0
   40.2767   10.3889  -16.2166 H   0  0  0  0  0  0
  1  2  1  0  0  0
  1  3  2  0  0  0
  1  8  1  0  0  0
  2  9  1  0  0  0
  2 20  2  0  0  0
  3  4  1  0  0  0
  3  5  1  0  0  0
  4  9  1  0  0  0
  4 29  1  0  0  0
  5  6  2  0  0  0
  5 22  1  0  0  0
  6  7  1  0  0  0
  6 23  1  0  0  0
  7  8  2  0  0  0
  7 24  1  0  0  0
  8 25  1  0  0  0
  9 10  2  0  0  0
 10 11  1  0  0  0
 10 14  1  0  0  0
 11 12  1  0  0  0
 11 19  2  0  0  0
 12 13  1  0  0  0
 12 30  1  0  0  0
 13 14  2  0  0  0
 13 15  1  0  0  0
 14 18  1  0  0  0
 15 16  2  0  0  0
 15 26  1  0  0  0
 16 17  1  0  0  0
 16 27  1  0  0  0
 17 18  2  0  0  0
 17 21  1  0  0  0
 18 28  1  0  0  0
M  END
> <s_m_entry_id>
28

> <s_m_entry_name>
P24941.4

$$$$
2c5y_lig_MTW
                    3D
 Structure written by MMmdl.
 43 46  0  0  1  0            999 V2000
   41.5040    7.3180   -7.5760 C   0  0  0  0  0  0
   42.3490    7.9120   -6.7370 N   0  0  0  0  0  0
   43.5770    7.7300   -7.2280 C   0  0  0  0  0  0
   43.4610    7.0160   -8.3440 N   0  0  0  0  0  0
   42.2660    6.7670   -8.5180 N   0  0  0  0  0  0
   41.7340    6.0270   -9.6740 C   0  0  0  0  0  0
   42.0720    6.8180  -10.9420 C   0  0  0  0  0  0
   41.2330    7.7530  -11.5410 C   0  0  0  0  0  0
   43.3400    6.6310  -11.4740 C   0  0  0  0  0  0
   43.7450    7.2850  -12.6290 C   0  0  0  0  0  0
   42.8850    8.1870  -13.2420 C   0  0  0  0  0  0
   41.6440    8.4450  -12.6770 C   0  0  0  0  0  0
   40.8090    9.3330  -13.3490 C   0  0  0  0  0  0
   39.8400    9.9970  -12.6910 N   0  0  0  0  0  0
   40.9730    9.4720  -14.7310 C   0  0  0  0  0  0
   40.0570   10.2720  -15.3940 C   0  0  0  0  0  0
   39.1240   10.8960  -14.6780 N   0  0  0  0  0  0
   38.9710   10.7930  -13.3460 C   0  0  0  0  0  0
   37.9900   11.4390  -12.6970 N   0  0  0  0  0  0
   37.6610   11.2790  -11.4020 C   0  0  0  0  0  0
   38.4080   10.5300  -10.4910 C   0  0  0  0  0  0
   36.4870   11.8510  -10.9130 C   0  0  0  0  0  0
   36.0600   11.6610   -9.6010 C   0  0  0  0  0  0
   36.8270   10.9140   -8.7100 C   0  0  0  0  0  0
   38.0120   10.3360   -9.1610 C   0  0  0  0  0  0
   38.8270    9.7100   -8.2960 N   0  3  0  0  0  0
   38.7250    8.3680   -7.7790 O   0  0  0  0  0  0
   39.9620   10.4710   -7.9130 O   0  5  0  0  0  0
   40.4400    7.3640   -7.3930 H   0  0  0  0  0  0
   44.4310    8.1420   -6.7110 H   0  0  0  0  0  0
   42.1910    5.0380   -9.7160 H   0  0  0  0  0  0
   40.6540    5.9230   -9.5730 H   0  0  0  0  0  0
   40.2560    7.9470  -11.1240 H   0  0  0  0  0  0
   44.0370    5.9650  -10.9870 H   0  0  0  0  0  0
   44.7220    7.0910  -13.0450 H   0  0  0  0  0  0
   43.1840    8.6830  -14.1540 H   0  0  0  0  0  0
   41.7850    8.9660  -15.2320 H   0  0  0  0  0  0
   40.1090   10.3780  -16.4670 H   0  0  0  0  0  0
   37.4210   12.1150  -13.1850 H   0  0  0  0  0  0
   39.3340   10.0710  -10.8010 H   0  0  0  0  0  0
   35.8750   12.4630  -11.5580 H   0  0  0  0  0  0
   35.1290   12.0960   -9.2690 H   0  0  0  0  0  0
   36.5000   10.7890   -7.6890 H   0  0  0  0  0  0
  1  2  2  0  0  0
  1  5  1  0  0  0
  1 29  1  0  0  0
  2  3  1  0  0  0
  3  4  2  0  0  0
  3 30  1  0  0  0
  4  5  1  0  0  0
  5  6  1  0  0  0
  6  7  1  0  0  0
  6 31  1  0  0  0
  6 32  1  0  0  0
  7  8  2  0  0  0
  7  9  1  0  0  0
  8 12  1  0  0  0
  8 33  1  0  0  0
  9 10  2  0  0  0
  9 34  1  0  0  0
 10 11  1  0  0  0
 10 35  1  0  0  0
 11 12  2  0  0  0
 11 36  1  0  0  0
 12 13  1  0  0  0
 13 14  2  0  0  0
 13 15  1  0  0  0
 14 18  1  0  0  0
 15 16  2  0  0  0
 15 37  1  0  0  0
 16 17  1  0  0  0
 16 38  1  0  0  0
 17 18  2  0  0  0
 18 19  1  0  0  0
 19 20  1  0  0  0
 19 39  1  0  0  0
 20 21  2  0  0  0
 20 22  1  0  0  0
 21 25  1  0  0  0
 21 40  1  0  0  0
 22 23  2  0  0  0
 22 41  1  0  0  0
 23 24  1  0  0  0
 23 42  1  0  0  0
 24 25  2  0  0  0
 24 43  1  0  0  0
 25 26  1  0  0  0
 26 27  2  0  0  0
 26 28  1  0  0  0
M  CHG  2  26   1  28  -1
M  END
> <s_m_entry_id>
29

> <s_m_entry_name>
P24941.5

$$$$
2uue_lig_MTZ
                    3D
 Structure written by MMmdl.
 46 49  0  0  1  0            999 V2000
   34.3680   11.8370   -7.3340 C   0  0  0  0  0  0
   34.5010   12.5660   -5.9950 C   0  0  0  0  0  0
   34.6180   11.5240   -5.0130 O   0  0  0  0  0  0
   35.8670   10.7890   -5.1150 C   0  0  0  0  0  0
   36.2630   10.2850   -6.5160 C   0  0  0  0  0  0
   35.5920   11.0360   -7.6150 N   0  0  0  0  0  0
   36.1210   11.0360   -8.9220 C   0  0  0  0  0  0
   35.9660   12.1950   -9.6750 C   0  0  0  0  0  0
   36.4520   12.2510  -10.9740 C   0  0  0  0  0  0
   36.7730    9.9310   -9.4730 C   0  0  0  0  0  0
   37.2540    9.9870  -10.7810 C   0  0  0  0  0  0
   37.1070   11.1580  -11.5310 C   0  0  0  0  0  0
   37.5420   11.3010  -12.7860 N   0  0  0  0  0  0
   38.6270   10.7440  -13.3290 C   0  0  0  0  0  0
   39.4730   10.0160  -12.6010 N   0  0  0  0  0  0
   38.8490   10.8770  -14.6440 N   0  0  0  0  0  0
   39.8750   10.3110  -15.2750 C   0  0  0  0  0  0
   40.7730    9.5480  -14.5550 C   0  0  0  0  0  0
   40.5180    9.4210  -13.1920 C   0  0  0  0  0  0
   41.3080    8.6630  -12.3520 C   0  0  0  0  0  0
   40.9320    8.5310  -10.6970 S   0  0  0  0  0  0
   42.3640    7.8040  -12.6800 C   0  0  0  0  0  0
   42.9210    7.6450  -14.1030 C   0  0  0  0  0  0
   42.8830    7.1680  -11.6120 N   0  0  0  0  0  0
   42.2580    7.4400  -10.4470 C   0  0  0  0  0  0
   42.5880    6.9230   -9.2550 N   0  0  0  0  0  0
   33.5070   11.1690   -7.3010 H   0  0  0  0  0  0
   34.2300   12.5660   -8.1330 H   0  0  0  0  0  0
   35.3860   13.2020   -6.0130 H   0  0  0  0  0  0
   33.6160   13.1800   -5.8260 H   0  0  0  0  0  0
   36.6900   11.4250   -4.7870 H   0  0  0  0  0  0
   35.8200    9.9010   -4.4840 H   0  0  0  0  0  0
   37.3400   10.3910   -6.6510 H   0  0  0  0  0  0
   35.9870    9.2360   -6.6170 H   0  0  0  0  0  0
   35.4660   13.0530   -9.2500 H   0  0  0  0  0  0
   36.3240   13.1480  -11.5610 H   0  0  0  0  0  0
   36.9050    9.0330   -8.8860 H   0  0  0  0  0  0
   37.7400    9.1260  -11.2150 H   0  0  0  0  0  0
   37.0310   11.8820  -13.4340 H   0  0  0  0  0  0
   39.9970   10.4520  -16.3400 H   0  0  0  0  0  0
   41.6140    9.0900  -15.0530 H   0  0  0  0  0  0
   43.7360    6.9210  -14.0960 H   0  0  0  0  0  0
   42.1310    7.2930  -14.7670 H   0  0  0  0  0  0
   43.2930    8.6060  -14.4580 H   0  0  0  0  0  0
   43.3730    6.2920   -9.1780 H   0  0  0  0  0  0
   42.0520    7.1640   -8.4340 H   0  0  0  0  0  0
  1  2  1  0  0  0
  1  6  1  0  0  0
  1 27  1  0  0  0
  1 28  1  0  0  0
  2  3  1  0  0  0
  2 29  1  0  0  0
  2 30  1  0  0  0
  3  4  1  0  0  0
  4  5  1  0  0  0
  4 31  1  0  0  0
  4 32  1  0  0  0
  5  6  1  0  0  0
  5 33  1  0  0  0
  5 34  1  0  0  0
  6  7  1  0  0  0
  7  8  2  0  0  0
  7 10  1  0  0  0
  8  9  1  0  0  0
  8 35  1  0  0  0
  9 12  2  0  0  0
  9 36  1  0  0  0
 10 11  2  0  0  0
 10 37  1  0  0  0
 11 12  1  0  0  0
 11 38  1  0  0  0
 12 13  1  0  0  0
 13 14  1  0  0  0
 13 39  1  0  0  0
 14 15  2  0  0  0
 14 16  1  0  0  0
 15 19  1  0  0  0
 16 17  2  0  0  0
 17 18  1  0  0  0
 17 40  1  0  0  0
 18 19  2  0  0  0
 18 41  1  0  0  0
 19 20  1  0  0  0
 20 21  1  0  0  0
 20 22  2  0  0  0
 21 25  1  0  0  0
 22 23  1  0  0  0
 22 24  1  0  0  0
 23 42  1  0  0  0
 23 43  1  0  0  0
 23 44  1  0  0  0
 24 25  2  0  0  0
 25 26  1  0  0  0
 26 45  1  0  0  0
 26 46  1  0  0  0
M  END
> <s_m_entry_id>
30

> <s_m_entry_name>
P24941.6

$$$$
2uzl_lig_C94
                    3D
 Structure written by MMmdl.
 37 39  0  0  1  0            999 V2000
   35.1140   11.9050   -7.4190 O   0  0  0  0  0  0
   35.2960   10.5460   -7.7820 S   0  0  0  0  0  0
   34.0720    9.9180   -8.1380 O   0  0  0  0  0  0
   36.0750    9.7330   -6.6500 N   0  0  0  0  0  0
   36.3440   10.5050   -9.1960 C   0  0  0  0  0  0
   36.4100   11.5670  -10.1070 C   0  0  0  0  0  0
   35.5450   12.8120   -9.9310 C   0  0  0  0  0  0
   34.3520   12.4790   -9.4510 F   0  0  0  0  0  0
   35.3910   13.4040  -11.1080 F   0  0  0  0  0  0
   36.1380   13.6540   -9.0910 F   0  0  0  0  0  0
   37.2690   11.4820  -11.2060 C   0  0  0  0  0  0
   38.0640   10.3550  -11.3760 C   0  0  0  0  0  0
   38.0120    9.3210  -10.4530 C   0  0  0  0  0  0
   37.1570    9.3950   -9.3700 C   0  0  0  0  0  0
   39.0190   10.2260  -12.5210 C   0  0  0  0  0  0
   40.0750    9.3660  -12.5330 O   0  0  0  0  0  0
   38.9860   10.8870  -13.7430 C   0  0  0  0  0  0
   40.0570   10.4100  -14.4980 C   0  0  0  0  0  0
   40.7270    9.4680  -13.7230 C   0  0  0  0  0  0
   41.9200    8.6750  -14.0980 C   0  0  0  0  0  0
   42.3360    7.6950  -13.2730 C   0  0  0  0  0  0
   41.6530    7.3510  -11.7960 S   0  0  0  0  0  0
   42.7340    6.1190  -11.5200 C   0  0  0  0  0  0
   42.7380    5.4060  -10.4680 N   0  0  0  0  0  0
   43.5890    5.9560  -12.5360 N   0  0  0  0  0  0
   43.3910    6.8260  -13.5380 C   0  0  0  0  0  0
   44.0640    6.8510  -14.5660 O   0  0  0  0  0  0
   36.2727    8.7510   -6.7791 H   0  0  0  0  0  0
   36.3701   10.2007   -5.8049 H   0  0  0  0  0  0
   37.3137   12.2908  -11.9203 H   0  0  0  0  0  0
   38.6417    8.4526  -10.5789 H   0  0  0  0  0  0
   37.1234    8.5840   -8.6575 H   0  0  0  0  0  0
   38.2145   11.6161  -13.9419 H   0  0  0  0  0  0
   40.2255   10.7883  -15.4954 H   0  0  0  0  0  0
   43.4218    4.6708  -10.3588 H   0  0  0  0  0  0
   44.2917    5.2318  -12.4935 H   0  0  0  0  0  0
   42.4411    8.8866  -15.0200 H   0  0  0  0  0  0
  1  2  2  0  0  0
  2  3  2  0  0  0
  2  4  1  0  0  0
  2  5  1  0  0  0
  4 28  1  0  0  0
  4 29  1  0  0  0
  5  6  2  0  0  0
  5 14  1  0  0  0
  6  7  1  0  0  0
  6 11  1  0  0  0
  7  8  1  0  0  0
  7  9  1  0  0  0
  7 10  1  0  0  0
 11 12  2  0  0  0
 11 30  1  0  0  0
 12 13  1  0  0  0
 12 15  1  0  0  0
 13 14  2  0  0  0
 13 31  1  0  0  0
 14 32  1  0  0  0
 15 16  1  0  0  0
 15 17  2  0  0  0
 16 19  1  0  0  0
 17 18  1  0  0  0
 17 33  1  0  0  0
 18 19  2  0  0  0
 18 34  1  0  0  0
 19 20  1  0  0  0
 20 21  2  0  0  0
 20 37  1  0  0  0
 21 22  1  0  0  0
 21 26  1  0  0  0
 22 23  1  0  0  0
 23 24  2  0  0  0
 23 25  1  0  0  0
 24 35  1  0  0  0
 25 26  1  0  0  0
 25 36  1  0  0  0
 26 27  2  0  0  0
M  END
> <s_m_entry_id>
31

> <s_m_entry_name>
P24941.7

$$$$
2vtp_lig_LZ9
                    3D
 Structure written by MMmdl.
 37 39  0  0  1  0            999 V2000
   34.2220   11.6920   -8.1370 F   0  0  0  0  0  0
   35.0360   11.5380   -9.1960 C   0  0  0  0  0  0
   35.4150   12.6580   -9.9130 C   0  0  0  0  0  0
   36.2410   12.5060  -11.0050 C   0  0  0  0  0  0
   36.6960   11.2320  -11.3770 C   0  0  0  0  0  0
   37.5680   11.0800  -12.4920 N   0  0  0  0  0  0
   38.8240   10.5890  -12.4070 C   0  0  0  0  0  0
   39.3280   10.2570  -11.3430 O   0  0  0  0  0  0
   39.5530   10.3850  -13.6700 C   0  0  0  0  0  0
   39.2520   10.9950  -14.7880 N   0  0  0  0  0  0
   40.1350   10.5180  -15.7010 N   0  0  0  0  0  0
   40.9680    9.6410  -15.1800 C   0  0  0  0  0  0
   40.6270    9.5140  -13.8710 C   0  0  0  0  0  0
   41.1570    8.7040  -12.8820 N   0  0  0  0  0  0
   42.1200    7.7860  -13.0560 C   0  0  0  0  0  0
   42.6700    7.6120  -14.1550 O   0  0  0  0  0  0
   42.5360    7.0240  -11.8200 C   0  0  0  0  0  0
   43.8050    7.1990  -11.2470 C   0  0  0  0  0  0
   44.6690    8.0370  -11.8530 F   0  0  0  0  0  0
   44.1850    6.5310  -10.0780 C   0  0  0  0  0  0
   43.2850    5.6710   -9.4490 C   0  0  0  0  0  0
   42.0160    5.4760   -9.9910 C   0  0  0  0  0  0
   41.6500    6.1540  -11.1520 C   0  0  0  0  0  0
   40.4180    5.9790  -11.6530 F   0  0  0  0  0  0
   36.3100   10.1130  -10.6220 C   0  0  0  0  0  0
   35.4720   10.2680   -9.5340 C   0  0  0  0  0  0
   35.0640   13.6360   -9.6150 H   0  0  0  0  0  0
   36.5420   13.3700  -11.5800 H   0  0  0  0  0  0
   37.2580   11.3470  -13.4160 H   0  0  0  0  0  0
   40.0990   10.8440  -16.6560 H   0  0  0  0  0  0
   41.7300    9.1880  -15.7970 H   0  0  0  0  0  0
   40.8180    8.7770  -11.9330 H   0  0  0  0  0  0
   45.1710    6.6820   -9.6660 H   0  0  0  0  0  0
   43.5720    5.1580   -8.5430 H   0  0  0  0  0  0
   41.3220    4.8010   -9.5120 H   0  0  0  0  0  0
   36.6670    9.1300  -10.8930 H   0  0  0  0  0  0
   35.1560    9.4160   -8.9500 H   0  0  0  0  0  0
  1  2  1  0  0  0
  2  3  2  0  0  0
  2 26  1  0  0  0
  3  4  1  0  0  0
  3 27  1  0  0  0
  4  5  2  0  0  0
  4 28  1  0  0  0
  5  6  1  0  0  0
  5 25  1  0  0  0
  6  7  1  0  0  0
  6 29  1  0  0  0
  7  8  2  0  0  0
  7  9  1  0  0  0
  9 10  2  0  0  0
  9 13  1  0  0  0
 10 11  1  0  0  0
 11 12  1  0  0  0
 11 30  1  0  0  0
 12 13  2  0  0  0
 12 31  1  0  0  0
 13 14  1  0  0  0
 14 15  1  0  0  0
 14 32  1  0  0  0
 15 16  2  0  0  0
 15 17  1  0  0  0
 17 18  2  0  0  0
 17 23  1  0  0  0
 18 19  1  0  0  0
 18 20  1  0  0  0
 20 21  2  0  0  0
 20 33  1  0  0  0
 21 22  1  0  0  0
 21 34  1  0  0  0
 22 23  2  0  0  0
 22 35  1  0  0  0
 23 24  1  0  0  0
 25 26  2  0  0  0
 25 36  1  0  0  0
 26 37  1  0  0  0
M  END
> <s_m_entry_id>
32

> <s_m_entry_name>
P24941.8

$$$$
2vts_lig_LZC
                    3D
 Structure written by MMmdl.
 47 49  0  0  1  0            999 V2000
   35.7400   12.9580  -10.8350 C   0  0  0  0  0  0
   36.4330   11.5990  -10.7460 C   0  0  0  0  0  0
   35.4380   10.4390  -10.7970 C   0  0  0  0  0  0
   37.3990   11.4570  -11.8250 N   0  0  0  0  0  0
   38.4860   10.5980  -11.7420 C   0  0  0  0  0  0
   38.9000    9.9620  -10.5810 C   0  0  0  0  0  0
   39.9990    9.1150  -10.6480 C   0  0  0  0  0  0
   40.4750    8.4370   -9.5520 N   0  0  0  0  0  0
   41.4380    7.3530   -9.6450 C   0  0  1  0  0  0
   41.9390    6.9920   -8.2460 C   0  0  0  0  0  0
   42.8800    5.8070   -8.2710 C   0  0  0  0  0  0
   42.1560    4.6080   -8.8410 C   0  0  2  0  0  0
   43.0540    3.4040   -8.8000 N   0  3  0  0  0  0
   41.6810    4.8820  -10.2720 C   0  0  0  0  0  0
   40.8070    6.1350  -10.3480 C   0  0  0  0  0  0
   40.6950    8.9110  -11.7860 N   0  0  0  0  0  0
   40.2820    9.5220  -12.8970 C   0  0  0  0  0  0
   40.7260    9.4880  -14.1910 C   0  0  0  0  0  0
   41.8400    8.7460  -14.6510 C   0  0  0  0  0  0
   42.7440    8.1350  -15.0200 N   0  0  0  0  0  0
   39.8970   10.3480  -14.9180 C   0  0  0  0  0  0
   38.9710   10.9060  -14.1250 N   0  0  0  0  0  0
   39.2120   10.3730  -12.8850 N   0  0  0  0  0  0
   36.4860   13.7520  -10.7950 H   0  0  0  0  0  0
   35.1890   13.0260  -11.7730 H   0  0  0  0  0  0
   35.0480   13.0690  -10.0000 H   0  0  0  0  0  0
   37.0160   11.5460   -9.8270 H   0  0  0  0  0  0
   35.9770    9.4940  -10.7310 H   0  0  0  0  0  0
   34.7430   10.5190   -9.9620 H   0  0  0  0  0  0
   34.8840   10.4750  -11.7350 H   0  0  0  0  0  0
   37.2560   12.0120  -12.6560 H   0  0  0  0  0  0
   38.3710   10.1310   -9.6550 H   0  0  0  0  0  0
   40.1550    8.6850   -8.6270 H   0  0  0  0  0  0
   42.2530    7.6470  -10.3050 H   0  0  0  0  0  0
   42.4730    7.8420   -7.8200 H   0  0  0  0  0  0
   41.0920    6.7400   -7.6090 H   0  0  0  0  0  0
   43.7440    6.0420   -8.8920 H   0  0  0  0  0  0
   43.2120    5.5850   -7.2570 H   0  0  0  0  0  0
   41.2350    4.4400   -8.2830 H   0  0  0  0  0  0
   42.5660    2.6060   -9.1820 H   0  0  0  0  0  0
   43.8840    3.5830   -9.3460 H   0  0  0  0  0  0
   43.3150    3.2100   -7.8440 H   0  0  0  0  0  0
   42.5460    5.0270  -10.9210 H   0  0  0  0  0  0
   41.0980    4.0340  -10.6300 H   0  0  0  0  0  0
   39.8510    5.9000   -9.8800 H   0  0  0  0  0  0
   40.6490    6.3650  -11.4010 H   0  0  0  0  0  0
   40.0560   10.4840  -15.9770 H   0  0  0  0  0  0
  1  2  1  0  0  0
  1 24  1  0  0  0
  1 25  1  0  0  0
  1 26  1  0  0  0
  2  3  1  0  0  0
  2  4  1  0  0  0
  2 27  1  0  0  0
  3 28  1  0  0  0
  3 29  1  0  0  0
  3 30  1  0  0  0
  4  5  1  0  0  0
  4 31  1  0  0  0
  5  6  2  0  0  0
  5 23  1  0  0  0
  6  7  1  0  0  0
  6 32  1  0  0  0
  7  8  1  0  0  0
  7 16  2  0  0  0
  8  9  1  0  0  0
  8 33  1  0  0  0
  9 10  1  0  0  0
  9 15  1  0  0  0
  9 34  1  0  0  0
 10 11  1  0  0  0
 10 35  1  0  0  0
 10 36  1  0  0  0
 11 12  1  0  0  0
 11 37  1  0  0  0
 11 38  1  0  0  0
 12 13  1  0  0  0
 12 14  1  0  0  0
 12 39  1  0  0  0
 13 40  1  0  0  0
 13 41  1  0  0  0
 13 42  1  0  0  0
 14 15  1  0  0  0
 14 43  1  0  0  0
 14 44  1  0  0  0
 15 45  1  0  0  0
 15 46  1  0  0  0
 16 17  1  0  0  0
 17 18  2  0  0  0
 17 23  1  0  0  0
 18 19  1  0  0  0
 18 21  1  0  0  0
 19 20  3  0  0  0
 21 22  2  0  0  0
 21 47  1  0  0  0
 22 23  1  0  0  0
M  CHG  1  13   1
M  END
> <s_m_entry_id>
33

> <s_m_entry_name>
P24941.9

$$$$
2vu3_lig_LZE
                    3D
 Structure written by MMmdl.
 43 45  0  0  1  0            999 V2000
   35.1550   10.5970   -9.3740 C   0  0  0  0  0  0
   35.9530   10.4120  -10.6680 C   0  0  0  0  0  0
   36.9870   11.5300  -10.8130 C   0  0  0  0  0  0
   37.7760   11.3670  -12.0310 N   0  0  0  0  0  0
   38.9570   10.6950  -12.0540 C   0  0  0  0  0  0
   39.5140   10.2560  -11.0330 O   0  0  0  0  0  0
   39.5680   10.4980  -13.3740 C   0  0  0  0  0  0
   39.1530   11.1270  -14.5160 N   0  0  0  0  0  0
   39.9640   10.6470  -15.4930 N   0  0  0  0  0  0
   40.8740    9.7660  -14.9890 C   0  0  0  0  0  0
   40.6310    9.6540  -13.6360 C   0  0  0  0  0  0
   41.2480    8.8730  -12.6600 N   0  0  0  0  0  0
   42.1120    7.8680  -12.9030 C   0  0  0  0  0  0
   42.5290    7.6080  -14.0320 O   0  0  0  0  0  0
   42.5930    7.1230  -11.6990 C   0  0  0  0  0  0
   43.8940    7.2500  -11.2750 C   0  0  0  0  0  0
   44.3510    6.5890  -10.1330 C   0  0  0  0  0  0
   43.4820    5.7920   -9.4090 C   0  0  0  0  0  0
   42.1640    5.6750   -9.8100 C   0  0  0  0  0  0
   41.7310    6.3400  -10.9500 C   0  0  0  0  0  0
   36.2940   12.8980  -10.7750 C   0  0  0  0  0  0
   34.5110   11.9400   -9.3390 N   0  3  0  0  0  0
   35.4980   13.0510   -9.4810 C   0  0  0  0  0  0
   40.0970    6.1480  -11.4640 Cl  0  0  0  0  0  0
   44.9800    8.2370  -12.1770 Cl  0  0  0  0  0  0
   34.3800    9.8340   -9.3130 H   0  0  0  0  0  0
   35.8230   10.5050   -8.5180 H   0  0  0  0  0  0
   36.4670    9.4510  -10.6430 H   0  0  0  0  0  0
   35.2750   10.4380  -11.5200 H   0  0  0  0  0  0
   37.6180   11.5600   -9.9250 H   0  0  0  0  0  0
   37.4130   11.7780  -12.8790 H   0  0  0  0  0  0
   39.8420   10.9540  -16.4480 H   0  0  0  0  0  0
   41.6020    9.3080  -15.6420 H   0  0  0  0  0  0
   41.0580    9.0430  -11.6830 H   0  0  0  0  0  0
   45.3780    6.7020   -9.8180 H   0  0  0  0  0  0
   43.8350    5.2640   -8.5350 H   0  0  0  0  0  0
   41.4770    5.0700   -9.2380 H   0  0  0  0  0  0
   37.0440   13.6870  -10.8270 H   0  0  0  0  0  0
   35.6160   12.9850  -11.6230 H   0  0  0  0  0  0
   33.8470   12.0160  -10.0970 H   0  0  0  0  0  0
   34.0310   12.0610   -8.4580 H   0  0  0  0  0  0
   36.1790   13.0290   -8.6300 H   0  0  0  0  0  0
   34.9630   14.0010   -9.4930 H   0  0  0  0  0  0
  1  2  1  0  0  0
  1 22  1  0  0  0
  1 26  1  0  0  0
  1 27  1  0  0  0
  2  3  1  0  0  0
  2 28  1  0  0  0
  2 29  1  0  0  0
  3  4  1  0  0  0
  3 21  1  0  0  0
  3 30  1  0  0  0
  4  5  1  0  0  0
  4 31  1  0  0  0
  5  6  2  0  0  0
  5  7  1  0  0  0
  7  8  2  0  0  0
  7 11  1  0  0  0
  8  9  1  0  0  0
  9 10  1  0  0  0
  9 32  1  0  0  0
 10 11  2  0  0  0
 10 33  1  0  0  0
 11 12  1  0  0  0
 12 13  1  0  0  0
 12 34  1  0  0  0
 13 14  2  0  0  0
 13 15  1  0  0  0
 15 16  2  0  0  0
 15 20  1  0  0  0
 16 17  1  0  0  0
 16 25  1  0  0  0
 17 18  2  0  0  0
 17 35  1  0  0  0
 18 19  1  0  0  0
 18 36  1  0  0  0
 19 20  2  0  0  0
 19 37  1  0  0  0
 20 24  1  0  0  0
 21 23  1  0  0  0
 21 38  1  0  0  0
 21 39  1  0  0  0
 22 23  1  0  0  0
 22 40  1  0  0  0
 22 41  1  0  0  0
 23 42  1  0  0  0
 23 43  1  0  0  0
M  CHG  1  22   1
M  END
> <s_m_entry_id>
34

> <s_m_entry_name>
P24941.10

$$$$
2xmy_lig_CDK
                    3D
 Structure written by MMmdl.
 50 52  0  0  1  0            999 V2000
   43.6240    8.7350  -13.6590 C   0  0  0  0  0  0
   42.8130    8.0290  -12.5710 C   0  0  0  0  0  0
   43.3320    7.0840  -11.7710 N   0  0  0  0  0  0
   44.7410    6.6460  -11.8620 C   0  0  0  0  0  0
   42.4800    6.5690  -10.8720 C   0  0  0  0  0  0
   42.7570    5.7130  -10.0340 O   0  0  0  0  0  0
   40.9580    7.3160  -11.0310 S   0  0  0  0  0  0
   41.4740    8.3270  -12.2920 C   0  0  0  0  0  0
   40.6460    9.2150  -12.9710 C   0  0  0  0  0  0
   39.6420    9.8440  -12.3320 N   0  0  0  0  0  0
   40.8320    9.4000  -14.3370 C   0  0  0  0  0  0
   39.9790   10.2510  -15.0200 C   0  0  0  0  0  0
   39.0000   10.8440  -14.3610 N   0  0  0  0  0  0
   38.8180   10.6350  -13.0500 C   0  0  0  0  0  0
   37.8180   11.3200  -12.5180 N   0  0  0  0  0  0
   37.2380   11.1000  -11.3480 C   0  0  0  0  0  0
   36.3020   12.0570  -10.9760 C   0  0  0  0  0  0
   35.5870   11.9460   -9.7970 C   0  0  0  0  0  0
   37.4640    9.9870  -10.5500 C   0  0  0  0  0  0
   36.7370    9.8600   -9.3640 C   0  0  0  0  0  0
   35.8120   10.8380   -8.9910 C   0  0  0  0  0  0
   34.8490   10.7240   -7.5380 S   0  0  0  0  0  0
   33.7070    9.7880   -7.8110 O   0  0  0  0  0  0
   34.2590   12.0850   -7.2530 O   0  0  0  0  0  0
   35.7250   10.1940   -6.2540 N   0  0  0  0  0  0
   34.8930   10.2020   -5.0370 C   0  0  0  0  0  0
   35.0090   11.5370   -4.2870 C   0  0  0  0  0  0
   33.8490   12.3930   -4.4540 O   0  0  0  0  0  0
   33.5150   12.9960   -3.2070 C   0  0  0  0  0  0
   42.9910    9.4570  -14.1740 H   0  0  0  0  0  0
   44.4690    9.2520  -13.2050 H   0  0  0  0  0  0
   43.9910    8.0000  -14.3750 H   0  0  0  0  0  0
   44.9310    5.8740  -11.1170 H   0  0  0  0  0  0
   44.9340    6.2440  -12.8570 H   0  0  0  0  0  0
   45.3990    7.4960  -11.6810 H   0  0  0  0  0  0
   41.6310    8.8830  -14.8470 H   0  0  0  0  0  0
   40.1190   10.4220  -16.0770 H   0  0  0  0  0  0
   37.4200   12.1020  -13.0170 H   0  0  0  0  0  0
   36.1190   12.9100  -11.6120 H   0  0  0  0  0  0
   34.8750   12.7100   -9.5230 H   0  0  0  0  0  0
   38.1880    9.2460  -10.8510 H   0  0  0  0  0  0
   36.8880    9.0000   -8.7280 H   0  0  0  0  0  0
   36.6900    9.9240   -6.3790 H   0  0  0  0  0  0
   33.8480   10.0480   -5.3080 H   0  0  0  0  0  0
   35.2160    9.4020   -4.3700 H   0  0  0  0  0  0
   35.1250   11.3470   -3.2210 H   0  0  0  0  0  0
   35.8760   12.0860   -4.6550 H   0  0  0  0  0  0
   32.6430   13.6380   -3.3350 H   0  0  0  0  0  0
   33.2880   12.2190   -2.4760 H   0  0  0  0  0  0
   34.3560   13.5930   -2.8530 H   0  0  0  0  0  0
  1  2  1  0  0  0
  1 30  1  0  0  0
  1 31  1  0  0  0
  1 32  1  0  0  0
  2  3  1  0  0  0
  2  8  2  0  0  0
  3  4  1  0  0  0
  3  5  1  0  0  0
  4 33  1  0  0  0
  4 34  1  0  0  0
  4 35  1  0  0  0
  5  6  2  0  0  0
  5  7  1  0  0  0
  7  8  1  0  0  0
  8  9  1  0  0  0
  9 10  2  0  0  0
  9 11  1  0  0  0
 10 14  1  0  0  0
 11 12  2  0  0  0
 11 36  1  0  0  0
 12 13  1  0  0  0
 12 37  1  0  0  0
 13 14  2  0  0  0
 14 15  1  0  0  0
 15 16  1  0  0  0
 15 38  1  0  0  0
 16 17  2  0  0  0
 16 19  1  0  0  0
 17 18  1  0  0  0
 17 39  1  0  0  0
 18 21  2  0  0  0
 18 40  1  0  0  0
 19 20  2  0  0  0
 19 41  1  0  0  0
 20 21  1  0  0  0
 20 42  1  0  0  0
 21 22  1  0  0  0
 22 23  2  0  0  0
 22 24  2  0  0  0
 22 25  1  0  0  0
 25 26  1  0  0  0
 25 43  1  0  0  0
 26 27  1  0  0  0
 26 44  1  0  0  0
 26 45  1  0  0  0
 27 28  1  0  0  0
 27 46  1  0  0  0
 27 47  1  0  0  0
 28 29  1  0  0  0
 29 48  1  0  0  0
 29 49  1  0  0  0
 29 50  1  0  0  0
M  END
> <s_m_entry_id>
35

> <s_m_entry_name>
P24941.11

$$$$
3ezr_lig_EZR
                    3D
 Structure written by MMmdl.
 62 67  0  0  1  0            999 V2000
   43.1560    6.2030  -16.5050 C   0  0  0  0  0  0
   36.0690   12.2210  -10.5900 C   0  0  0  0  0  0
   36.2780   10.8500   -8.6200 C   0  0  0  0  0  0
   43.9820    5.3170  -17.1540 C   0  0  0  0  0  0
   41.9260    8.5430  -15.4770 C   0  0  0  0  0  0
   40.5020    9.2040  -13.6150 C   0  0  0  0  0  0
   37.6740   10.3900  -10.4330 C   0  0  0  0  0  0
   40.9520    9.3250  -14.9110 C   0  0  0  0  0  0
   45.1370    4.8840  -16.5430 C   0  0  0  0  0  0
   38.6300   10.4750  -12.3450 C   0  0  0  0  0  0
   37.7430    7.7210   -9.0690 C   0  0  0  0  0  0
   37.5250    9.0390   -6.9950 C   0  0  0  0  0  0
   37.1980    7.6590   -6.4490 C   0  0  0  0  0  0
   46.2410    6.1370  -13.1610 C   0  0  0  0  0  0
   35.6920   11.8850   -9.3100 C   0  0  0  0  0  0
   41.0770    8.2530  -12.7880 C   0  0  0  0  0  0
   42.0740    7.4770  -13.3460 C   0  0  0  0  0  0
   45.4440    5.3580  -15.2900 C   0  0  0  0  0  0
   42.4910    7.5970  -14.6560 C   0  0  0  0  0  0
   43.4520    6.6930  -15.2470 C   0  0  0  0  0  0
   37.0730   11.4340  -11.1080 C   0  0  0  0  0  0
   37.2790   10.0580   -9.1450 C   0  0  0  0  0  0
   44.6110    6.2520  -14.6490 C   0  0  0  0  0  0
   39.4860   10.1920  -13.5100 C   0  0  0  0  0  0
   38.6760    6.7820   -8.3360 C   0  0  0  0  0  0
   39.0920    6.1140   -5.9890 C   0  0  0  0  0  0
   38.6360    9.8030  -11.2170 N   0  0  0  0  0  0
   39.3070   10.8680  -14.6460 N   0  0  0  0  0  0
   37.6960   11.4670  -12.3190 N   0  0  0  0  0  0
   40.2080   10.3180  -15.4710 N   0  0  0  0  0  0
   37.8650    9.0060   -8.4140 N   0  0  0  0  0  0
   45.9950    3.9760  -17.1760 N   0  0  0  0  0  0
   38.1040    6.5930   -6.9780 N   0  3  0  0  0  0
   44.9580    6.6990  -13.3910 O   0  0  0  0  0  0
   42.2440    6.5360  -16.9780 H   0  0  0  0  0  0
   35.5840   13.0420  -11.0990 H   0  0  0  0  0  0
   35.9590   10.6220   -7.6130 H   0  0  0  0  0  0
   43.7240    4.9620  -18.1410 H   0  0  0  0  0  0
   42.2050    8.6920  -16.5100 H   0  0  0  0  0  0
   38.0400    7.7860  -10.1160 H   0  0  0  0  0  0
   36.7230    7.3440   -9.0040 H   0  0  0  0  0  0
   36.6620    9.6930   -6.8700 H   0  0  0  0  0  0
   38.3760    9.4520   -6.4530 H   0  0  0  0  0  0
   37.2930    7.6660   -5.3630 H   0  0  0  0  0  0
   36.1780    7.3910   -6.7220 H   0  0  0  0  0  0
   46.6010    6.4410  -12.1780 H   0  0  0  0  0  0
   46.1740    5.0510  -13.2040 H   0  0  0  0  0  0
   46.9340    6.4890  -13.9250 H   0  0  0  0  0  0
   34.9110   12.4420   -8.8140 H   0  0  0  0  0  0
   40.7410    8.1510  -11.7670 H   0  0  0  0  0  0
   42.5720    6.7260  -12.7510 H   0  0  0  0  0  0
   46.3460    5.0310  -14.7950 H   0  0  0  0  0  0
   38.7320    5.8340   -8.8700 H   0  0  0  0  0  0
   39.6700    7.2270   -8.2820 H   0  0  0  0  0  0
   39.7140    5.3420   -6.4410 H   0  0  0  0  0  0
   39.7190    6.9450   -5.6700 H   0  0  0  0  0  0
   38.5710    5.7000   -5.1250 H   0  0  0  0  0  0
   37.5730   12.0660  -13.1230 H   0  0  0  0  0  0
   40.3610   10.5820  -16.4340 H   0  0  0  0  0  0
   46.8380    3.6700  -16.7110 H   0  0  0  0  0  0
   45.7710    3.6280  -18.0960 H   0  0  0  0  0  0
   37.7060    5.6860   -6.7820 H   0  0  0  0  0  0
  1  4  2  0  0  0
  1 20  1  0  0  0
  1 35  1  0  0  0
  2 15  2  0  0  0
  2 21  1  0  0  0
  2 36  1  0  0  0
  3 15  1  0  0  0
  3 22  2  0  0  0
  3 37  1  0  0  0
  4  9  1  0  0  0
  4 38  1  0  0  0
  5  8  2  0  0  0
  5 19  1  0  0  0
  5 39  1  0  0  0
  6  8  1  0  0  0
  6 16  2  0  0  0
  6 24  1  0  0  0
  7 21  2  0  0  0
  7 22  1  0  0  0
  7 27  1  0  0  0
  8 30  1  0  0  0
  9 18  2  0  0  0
  9 32  1  0  0  0
 10 24  1  0  0  0
 10 27  2  0  0  0
 10 29  1  0  0  0
 11 25  1  0  0  0
 11 31  1  0  0  0
 11 40  1  0  0  0
 11 41  1  0  0  0
 12 13  1  0  0  0
 12 31  1  0  0  0
 12 42  1  0  0  0
 12 43  1  0  0  0
 13 33  1  0  0  0
 13 44  1  0  0  0
 13 45  1  0  0  0
 14 34  1  0  0  0
 14 46  1  0  0  0
 14 47  1  0  0  0
 14 48  1  0  0  0
 15 49  1  0  0  0
 16 17  1  0  0  0
 16 50  1  0  0  0
 17 19  2  0  0  0
 17 51  1  0  0  0
 18 23  1  0  0  0
 18 52  1  0  0  0
 19 20  1  0  0  0
 20 23  2  0  0  0
 21 29  1  0  0  0
 22 31  1  0  0  0
 23 34  1  0  0  0
 24 28  2  0  0  0
 25 33  1  0  0  0
 25 53  1  0  0  0
 25 54  1  0  0  0
 26 33  1  0  0  0
 26 55  1  0  0  0
 26 56  1  0  0  0
 26 57  1  0  0  0
 28 30  1  0  0  0
 29 58  1  0  0  0
 30 59  1  0  0  0
 32 60  1  0  0  0
 32 61  1  0  0  0
 33 62  1  0  0  0
M  CHG  1  33   1
M  END
> <s_m_entry_id>
36

> <s_m_entry_name>
P24941.12

$$$$
3lfs_lig_A07
                    3D
 Structure written by MMmdl.
 38 40  0  0  1  0            999 V2000
   42.0860    6.9000  -11.5740 C   0  0  0  0  0  0
   43.5040    6.8640  -14.2540 Cl  0  0  0  0  0  0
   41.2520    5.8170  -11.2720 C   0  0  0  0  0  0
   41.6670    4.8320  -10.3710 C   0  0  0  0  0  0
   42.9210    4.9280   -9.7600 C   0  0  0  0  0  0
   43.7500    6.0180  -10.0450 C   0  0  0  0  0  0
   43.3390    6.9960  -10.9600 C   0  0  0  0  0  0
   42.1940    7.8980  -13.7900 C   0  0  0  0  0  0
   41.7000    8.8130  -14.7230 C   0  0  0  0  0  0
   40.6670    9.6840  -14.3680 C   0  0  0  0  0  0
   40.1140    9.6420  -13.0920 C   0  0  0  0  0  0
   40.5850    8.6980  -12.1670 C   0  0  0  0  0  0
   41.6540    7.8540  -12.4940 C   0  0  0  0  0  0
   39.9850   10.5900  -15.0610 N   0  0  0  0  0  0
   39.1350   11.1490  -14.3520 N   0  0  0  0  0  0
   39.0890   10.5860  -13.1470 C   0  0  0  0  0  0
   38.2560   11.0440  -12.1900 N   0  0  0  0  0  0
   38.1180   10.6410  -10.9160 C   0  0  0  0  0  0
   37.0710   11.4250  -10.1150 C   0  0  0  0  0  0
   35.6790   10.7810  -10.1470 C   0  0  0  0  0  0
   35.7200    9.2750   -9.8590 C   0  0  0  0  0  0
   38.7500    9.7400  -10.3640 O   0  0  0  0  0  0
   40.2800    5.7380  -11.7380 H   0  0  0  0  0  0
   41.0190    3.9970  -10.1470 H   0  0  0  0  0  0
   43.2460    4.1630   -9.0710 H   0  0  0  0  0  0
   44.7100    6.1090   -9.5600 H   0  0  0  0  0  0
   43.9920    7.8250  -11.1910 H   0  0  0  0  0  0
   42.1170    8.8460  -15.7190 H   0  0  0  0  0  0
   40.1230    8.6180  -11.1930 H   0  0  0  0  0  0
   40.1950   10.7430  -16.0370 H   0  0  0  0  0  0
   37.6170   11.7980  -12.3950 H   0  0  0  0  0  0
   37.3810   11.4870   -9.0720 H   0  0  0  0  0  0
   36.9770   12.4310  -10.5250 H   0  0  0  0  0  0
   35.0440   11.2480   -9.3930 H   0  0  0  0  0  0
   35.2350   10.9210  -11.1320 H   0  0  0  0  0  0
   34.7090    8.8700   -9.8940 H   0  0  0  0  0  0
   36.3350    8.7780  -10.6090 H   0  0  0  0  0  0
   36.1440    9.1050   -8.8700 H   0  0  0  0  0  0
  1  3  2  0  0  0
  1  7  1  0  0  0
  1 13  1  0  0  0
  2  8  1  0  0  0
  3  4  1  0  0  0
  3 23  1  0  0  0
  4  5  2  0  0  0
  4 24  1  0  0  0
  5  6  1  0  0  0
  5 25  1  0  0  0
  6  7  2  0  0  0
  6 26  1  0  0  0
  7 27  1  0  0  0
  8  9  2  0  0  0
  8 13  1  0  0  0
  9 10  1  0  0  0
  9 28  1  0  0  0
 10 11  2  0  0  0
 10 14  1  0  0  0
 11 12  1  0  0  0
 11 16  1  0  0  0
 12 13  2  0  0  0
 12 29  1  0  0  0
 14 15  1  0  0  0
 14 30  1  0  0  0
 15 16  2  0  0  0
 16 17  1  0  0  0
 17 18  1  0  0  0
 17 31  1  0  0  0
 18 19  1  0  0  0
 18 22  2  0  0  0
 19 20  1  0  0  0
 19 32  1  0  0  0
 19 33  1  0  0  0
 20 21  1  0  0  0
 20 34  1  0  0  0
 20 35  1  0  0  0
 21 36  1  0  0  0
 21 37  1  0  0  0
 21 38  1  0  0  0
M  END
> <s_m_entry_id>
37

> <s_m_entry_name>
P24941.13

$$$$
2wih_lig_P48
                    3D
 Structure written by MMmdl.
 67 71  0  0  1  0            999 V2000
   44.8540    6.0480  -11.9890 O   0  0  0  0  0  0
   43.8780    5.7470  -11.3510 C   0  0  0  0  0  0
   43.7590    4.6880  -10.5420 N   0  0  0  0  0  0
   44.7460    3.6670  -10.2340 C   0  0  0  0  0  0
   42.7130    6.6180  -11.4650 C   0  0  0  0  0  0
   41.8230    6.7460  -10.5020 N   0  0  0  0  0  0
   40.8480    7.6250  -10.9070 N   0  0  0  0  0  0
   39.7930    7.8420   -9.8890 C   0  0  0  0  0  0
   41.0770    8.0960  -12.1260 C   0  0  0  0  0  0
   42.3270    7.4760  -12.6230 C   0  0  0  0  0  0
   40.2790    9.0320  -12.9550 C   0  0  0  0  0  0
   40.6820    9.2480  -14.2890 C   0  0  0  0  0  0
   41.8930    8.5390  -14.9240 C   0  0  0  0  0  0
   42.8980    7.8160  -14.0130 C   0  0  0  0  0  0
   43.4270    6.5970  -14.7650 C   0  0  0  0  0  0
   44.0380    8.7630  -13.7590 C   0  0  0  0  0  0
   39.1820    9.6510  -12.4430 N   0  0  0  0  0  0
   38.4190   10.5010  -13.1660 C   0  0  0  0  0  0
   38.7920   10.7480  -14.4680 N   0  0  0  0  0  0
   39.8840   10.1390  -15.0330 C   0  0  0  0  0  0
   37.3170   11.0880  -12.6420 N   0  0  0  0  0  0
   36.7380   10.9690  -11.3920 C   0  0  0  0  0  0
   36.6850    9.7220  -10.6810 C   0  0  0  0  0  0
   36.0740    9.6210   -9.4280 C   0  0  0  0  0  0
   35.4880   10.7730   -8.8420 C   0  0  0  0  0  0
   35.5290   12.0340   -9.5360 C   0  0  0  0  0  0
   36.1510   12.1250  -10.8010 C   0  0  0  0  0  0
   34.8158   10.6854   -7.5039 N   0  0  0  0  0  0
   33.7878    9.6674   -7.2459 C   0  0  0  0  0  0
   34.3418    8.9454   -6.0249 C   0  0  0  0  0  0
   34.5998   10.0184   -5.0569 N   0  3  0  0  0  0
   33.7448   10.1894   -3.8899 C   0  0  0  0  0  0
   35.7018   10.9484   -5.2719 C   0  0  0  0  0  0
   35.2138   11.7084   -6.5039 C   0  0  0  0  0  0
   42.8654    4.6523  -10.0724 H   0  0  0  0  0  0
   44.3358    2.9331   -9.5404 H   0  0  0  0  0  0
   45.0560    3.1493  -11.1429 H   0  0  0  0  0  0
   45.6304    4.1164   -9.7801 H   0  0  0  0  0  0
   39.5813    8.9083   -9.8074 H   0  0  0  0  0  0
   38.8859    7.3216  -10.1943 H   0  0  0  0  0  0
   40.1091    7.4724   -8.9128 H   0  0  0  0  0  0
   41.4254    7.7956  -15.5722 H   0  0  0  0  0  0
   42.3971    9.2191  -15.6131 H   0  0  0  0  0  0
   43.7367    6.8643  -15.7761 H   0  0  0  0  0  0
   44.2972    6.1405  -14.3031 H   0  0  0  0  0  0
   42.6616    5.8255  -14.8536 H   0  0  0  0  0  0
   44.5336    9.0584  -14.6846 H   0  0  0  0  0  0
   43.6967    9.6755  -13.2683 H   0  0  0  0  0  0
   44.8054    8.3244  -13.1218 H   0  0  0  0  0  0
   40.1030   10.3706  -16.0650 H   0  0  0  0  0  0
   36.9565   11.8065  -13.2485 H   0  0  0  0  0  0
   37.1122    8.8344  -11.1242 H   0  0  0  0  0  0
   36.0511    8.6665   -8.9261 H   0  0  0  0  0  0
   35.0756   12.9148   -9.1067 H   0  0  0  0  0  0
   36.1725   13.0758  -11.3140 H   0  0  0  0  0  0
   32.8237   10.1390   -7.0465 H   0  0  0  0  0  0
   33.6627    8.9918   -8.0944 H   0  0  0  0  0  0
   33.6285    8.2101   -5.6491 H   0  0  0  0  0  0
   35.2640    8.4139   -6.2693 H   0  0  0  0  0  0
   35.2071    9.4048   -4.5340 H   0  0  0  0  0  0
   34.2964   10.5934   -3.0394 H   0  0  0  0  0  0
   32.9310   10.8787   -4.1207 H   0  0  0  0  0  0
   33.3021    9.2438   -3.5731 H   0  0  0  0  0  0
   35.8754   11.6183   -4.4280 H   0  0  0  0  0  0
   36.6304   10.4144   -5.4830 H   0  0  0  0  0  0
   36.0061   12.3567   -6.8836 H   0  0  0  0  0  0
   34.3595   12.3468   -6.2705 H   0  0  0  0  0  0
  1  2  2  0  0  0
  2  3  1  0  0  0
  2  5  1  0  0  0
  3  4  1  0  0  0
  3 35  1  0  0  0
  4 36  1  0  0  0
  4 37  1  0  0  0
  4 38  1  0  0  0
  5  6  2  0  0  0
  5 10  1  0  0  0
  6  7  1  0  0  0
  7  8  1  0  0  0
  7  9  1  0  0  0
  8 39  1  0  0  0
  8 40  1  0  0  0
  8 41  1  0  0  0
  9 10  2  0  0  0
  9 11  1  0  0  0
 10 14  1  0  0  0
 11 12  2  0  0  0
 11 17  1  0  0  0
 12 13  1  0  0  0
 12 20  1  0  0  0
 13 14  1  0  0  0
 13 42  1  0  0  0
 13 43  1  0  0  0
 14 15  1  0  0  0
 14 16  1  0  0  0
 15 44  1  0  0  0
 15 45  1  0  0  0
 15 46  1  0  0  0
 16 47  1  0  0  0
 16 48  1  0  0  0
 16 49  1  0  0  0
 17 18  2  0  0  0
 18 19  1  0  0  0
 18 21  1  0  0  0
 19 20  2  0  0  0
 20 50  1  0  0  0
 21 22  1  0  0  0
 21 51  1  0  0  0
 22 23  2  0  0  0
 22 27  1  0  0  0
 23 24  1  0  0  0
 23 52  1  0  0  0
 24 25  2  0  0  0
 24 53  1  0  0  0
 25 26  1  0  0  0
 25 28  1  0  0  0
 26 27  2  0  0  0
 26 54  1  0  0  0
 27 55  1  0  0  0
 28 29  1  0  0  0
 28 34  1  0  0  0
 29 30  1  0  0  0
 29 56  1  0  0  0
 29 57  1  0  0  0
 30 31  1  0  0  0
 30 58  1  0  0  0
 30 59  1  0  0  0
 31 32  1  0  0  0
 31 33  1  0  0  0
 31 60  1  0  0  0
 32 61  1  0  0  0
 32 62  1  0  0  0
 32 63  1  0  0  0
 33 34  1  0  0  0
 33 64  1  0  0  0
 33 65  1  0  0  0
 34 66  1  0  0  0
 34 67  1  0  0  0
M  CHG  1  31   1
M  END
> <s_m_entry_id>
38

> <s_m_entry_name>
P24941.14

> <s_m_job_name>
impact_mini

> <r_i_Potential_Energy-OPLS2005>
-71.4299469329354

> <r_i_RMS_Derivative-OPLS2005>
5.85607851466331e-06

> <r_i_Max_Derivative-OPLS2005>
2.20414315439989e-05

> <r_i_Stretch_Energy-OPLS2005>
0.0231380985096636

> <r_i_Bend_Energy-OPLS2005>
14.192241512084

> <r_i_Dihedral_Energy-OPLS2005>
5.59764829225778

> <r_i_LJ-14_Energy-OPLS2005>
3.79268528662127

> <r_i_El-14_Energy-OPLS2005>
-46.0220248087718

> <r_i_Van_der_Waals_Energy-OPLS2005>
-3.56085045718821

> <r_i_Electrostatic_Energy-OPLS2005>
-45.452784856448

> <r_i_target_temperature>
298

$$$$
2b52_lig_D42
                    3D
 Structure written by MMmdl.
 55 59  0  0  1  0            999 V2000
   42.3870    3.8460   -7.2910 C   0  0  0  0  0  0
   42.6560    4.4650   -8.6530 C   0  0  0  0  0  0
   42.7610    5.9410   -8.5740 N   0  0  0  0  0  0
   41.5670    6.5780   -7.9780 C   0  0  0  0  0  0
   41.2100    5.9570   -6.6220 C   0  0  0  0  0  0
   41.2060    4.4680   -6.6470 N   0  3  0  0  0  0
   40.7820    3.7410   -5.4490 C   0  0  0  0  0  0
   43.7040    6.5540   -9.5830 N   0  0  0  0  0  0
   43.4240    6.7240  -10.8800 C   0  0  0  0  0  0
   42.4140    7.5250  -11.2240 N   0  0  0  0  0  0
   42.1360    8.0410  -12.5140 C   0  0  0  0  0  0
   42.8740    7.7100  -13.7550 C   0  0  0  0  0  0
   42.4450    8.3660  -15.0040 C   0  0  0  0  0  0
   41.3230    9.3260  -15.0080 C   0  0  0  0  0  0
   40.6170    9.6320  -13.7610 C   0  0  0  0  0  0
   41.0070    8.9900  -12.5020 C   0  0  0  0  0  0
   39.4560   10.4320  -13.4300 C   0  0  0  0  0  0
   39.1430   10.2730  -12.0260 C   0  0  0  0  0  0
   40.1110    9.3700  -11.4180 C   0  0  0  0  0  0
   38.5290   11.2440  -14.1190 N   0  0  0  0  0  0
   37.5820   11.5950  -12.9890 N   0  0  0  0  0  0
   37.9240   11.0130  -11.7500 C   0  0  0  0  0  0
   37.0060   11.0890  -10.6210 C   0  0  0  0  0  0
   36.8930    9.7620   -9.3860 S   0  0  0  0  0  0
   35.5510   10.6440   -8.5260 C   0  0  0  0  0  0
   35.2270   11.8720   -9.1610 N   0  0  0  0  0  0
   36.0170   12.1190  -10.3110 C   0  0  0  0  0  0
   35.7400   13.3740  -11.0840 C   0  0  0  0  0  0
   34.8450   10.1260   -7.2800 C   0  0  0  0  0  0
   44.0990    6.1540  -11.7460 O   0  0  0  0  0  0
   40.1560    8.9100  -10.2760 O   0  0  0  0  0  0
   42.2430    2.7699   -7.4056 H   0  0  0  0  0  0
   43.2600    3.9793   -6.6486 H   0  0  0  0  0  0
   43.5873    4.0567   -9.0523 H   0  0  0  0  0  0
   41.8732    4.1993   -9.3661 H   0  0  0  0  0  0
   41.7550    7.6464   -7.8558 H   0  0  0  0  0  0
   40.7324    6.4835   -8.6749 H   0  0  0  0  0  0
   41.9393    6.2846   -5.8784 H   0  0  0  0  0  0
   40.2400    6.3287   -6.2878 H   0  0  0  0  0  0
   40.4664    4.2645   -7.3049 H   0  0  0  0  0  0
   39.8329    4.1289   -5.0756 H   0  0  0  0  0  0
   40.6436    2.6774   -5.6516 H   0  0  0  0  0  0
   41.5204    3.8405   -4.6512 H   0  0  0  0  0  0
   44.6631    6.2429   -9.4848 H   0  0  0  0  0  0
   41.8832    7.8995  -10.4517 H   0  0  0  0  0  0
   43.7062    7.0247  -13.8124 H   0  0  0  0  0  0
   42.9649    8.1396  -15.9253 H   0  0  0  0  0  0
   41.0231    9.7834  -15.9405 H   0  0  0  0  0  0
   35.2035   14.1004  -10.4705 H   0  0  0  0  0  0
   36.6586   13.8610  -11.4105 H   0  0  0  0  0  0
   35.1160   13.1778  -11.9556 H   0  0  0  0  0  0
   33.7978   10.4299   -7.2901 H   0  0  0  0  0  0
   34.8925    9.0381   -7.2410 H   0  0  0  0  0  0
   35.3171   10.5348   -6.3867 H   0  0  0  0  0  0
   36.7902   12.1975  -13.1624 H   0  0  0  0  0  0
  1  2  1  0  0  0
  1  6  1  0  0  0
  1 32  1  0  0  0
  1 33  1  0  0  0
  2  3  1  0  0  0
  2 34  1  0  0  0
  2 35  1  0  0  0
  3  4  1  0  0  0
  3  8  1  0  0  0
  4  5  1  0  0  0
  4 36  1  0  0  0
  4 37  1  0  0  0
  5  6  1  0  0  0
  5 38  1  0  0  0
  5 39  1  0  0  0
  6  7  1  0  0  0
  6 40  1  0  0  0
  7 41  1  0  0  0
  7 42  1  0  0  0
  7 43  1  0  0  0
  8  9  1  0  0  0
  8 44  1  0  0  0
  9 10  1  0  0  0
  9 30  2  0  0  0
 10 11  1  0  0  0
 10 45  1  0  0  0
 11 12  2  0  0  0
 11 16  1  0  0  0
 12 13  1  0  0  0
 12 46  1  0  0  0
 13 14  2  0  0  0
 13 47  1  0  0  0
 14 15  1  0  0  0
 14 48  1  0  0  0
 15 16  2  0  0  0
 15 17  1  0  0  0
 16 19  1  0  0  0
 17 18  1  0  0  0
 17 20  2  0  0  0
 18 19  1  0  0  0
 18 22  2  0  0  0
 19 31  2  0  0  0
 20 21  1  0  0  0
 21 22  1  0  0  0
 21 55  1  0  0  0
 22 23  1  0  0  0
 23 24  1  0  0  0
 23 27  2  0  0  0
 24 25  1  0  0  0
 25 26  2  0  0  0
 25 29  1  0  0  0
 26 27  1  0  0  0
 27 28  1  0  0  0
 28 49  1  0  0  0
 28 50  1  0  0  0
 28 51  1  0  0  0
 29 52  1  0  0  0
 29 53  1  0  0  0
 29 54  1  0  0  0
M  CHG  1   6   1
M  END
> <s_m_entry_id>
39

> <s_m_entry_name>
2b52_lig_D42.1

> <s_m_job_name>
impact_mini

> <r_i_Potential_Energy-OPLS2005>
69.6711607802979

> <r_i_RMS_Derivative-OPLS2005>
3.17930154773707e-05

> <r_i_Max_Derivative-OPLS2005>
0.000185816370166611

> <r_i_Stretch_Energy-OPLS2005>
0.0449055689064763

> <r_i_Bend_Energy-OPLS2005>
6.07470972736219

> <r_i_Dihedral_Energy-OPLS2005>
5.4689122890987

> <r_i_LJ-14_Energy-OPLS2005>
0.553846314853135

> <r_i_El-14_Energy-OPLS2005>
-32.4075660332883

> <r_i_Van_der_Waals_Energy-OPLS2005>
-1.18344957879449

> <r_i_Electrostatic_Energy-OPLS2005>
91.1198024921602

> <r_i_target_temperature>
298

$$$$
2iw6_lig_QQ2
                    3D
 Structure written by MMmdl.
 61 63  0  0  1  0            999 V2000
   36.6660    9.6590   -9.0860 C   0  0  0  0  0  0
   39.8620   10.2900  -14.8000 C   0  0  0  0  0  0
   38.6200   10.6570  -12.8690 C   0  0  0  0  0  0
   39.6090    9.9460  -12.1530 C   0  0  0  0  0  0
   40.7360    9.4080  -12.8110 C   0  0  0  0  0  0
   40.9980    7.1490   -8.3130 C   0  0  0  0  0  0
   41.5270    8.4220   -8.4960 C   0  0  0  0  0  0
   41.7740    8.9230   -9.7820 C   0  0  0  0  0  0
   41.4740    8.1570  -10.9130 C   0  0  0  0  0  0
   40.6880    6.3670   -9.4220 C   0  0  0  0  0  0
   43.0740    7.2650  -13.6850 C   0  0  0  0  0  0
   43.0480    8.4760  -12.7930 C   0  0  0  0  0  0
   40.9220    6.8750  -10.6950 C   0  0  0  0  0  0
   36.9630   11.0170  -11.0350 C   0  0  0  0  0  0
   40.8150    9.6100  -14.1420 N   0  0  0  0  0  0
   38.7930   10.8160  -14.1910 N   0  0  0  0  0  0
   41.7210    8.6900  -12.1660 N   0  0  0  0  0  0
   43.1140    6.3230  -14.4190 N   0  0  0  0  0  0
   37.4550   11.2300  -12.2920 N   0  0  0  0  0  0
   37.1830    9.8160  -10.3680 C   0  0  0  0  0  0
   35.9340   10.6650   -8.4440 C   0  0  0  0  0  0
   35.7130   11.8690   -9.1240 C   0  0  0  0  0  0
   36.2340   12.0200  -10.4220 C   0  0  0  0  0  0
   35.4540   10.4070   -7.1730 O   0  0  0  0  0  0
   34.7690   11.3720   -6.3670 C   0  0  0  0  0  0
   34.7210   11.0870   -4.8440 C   0  0  1  0  0  0
   35.3150    9.7460   -4.3560 C   0  0  0  0  0  0
   35.2060    9.6620   -2.8630 N   0  3  0  0  0  0
   36.3750    9.3020   -2.0560 C   0  0  0  0  0  0
   33.9280    9.7630   -2.1520 C   0  0  0  0  0  0
   35.3500   12.1880   -4.1590 O   0  0  0  0  0  0
   40.4800    5.7890  -12.0230 Cl  0  0  0  0  0  0
   41.8510    9.2650   -7.2990 C   0  0  0  0  0  0
   36.8206    8.7169   -8.5818 H   0  0  0  0  0  0
   39.9713   10.4321  -15.8646 H   0  0  0  0  0  0
   39.5559    9.8712  -11.0837 H   0  0  0  0  0  0
   40.8231    6.7595   -7.3201 H   0  0  0  0  0  0
   42.1944    9.9115   -9.9032 H   0  0  0  0  0  0
   40.2754    5.3761   -9.2999 H   0  0  0  0  0  0
   43.8150    8.3468  -12.0299 H   0  0  0  0  0  0
   43.3302    9.3412  -13.3936 H   0  0  0  0  0  0
   36.9569   11.8539  -12.9091 H   0  0  0  0  0  0
   37.6709    8.9711  -10.8299 H   0  0  0  0  0  0
   35.1429   12.6795   -8.6984 H   0  0  0  0  0  0
   36.0598   12.9509  -10.9427 H   0  0  0  0  0  0
   35.2211   12.3510   -6.5307 H   0  0  0  0  0  0
   33.7516   11.4501   -6.7540 H   0  0  0  0  0  0
   33.6624   11.1194   -4.5832 H   0  0  0  0  0  0
   34.7937    8.9039   -4.8143 H   0  0  0  0  0  0
   36.3582    9.6751   -4.6691 H   0  0  0  0  0  0
   35.4005   10.6624   -2.8138 H   0  0  0  0  0  0
   36.3564    9.7828   -1.0765 H   0  0  0  0  0  0
   36.4145    8.2224   -1.9036 H   0  0  0  0  0  0
   37.3023    9.6063   -2.5442 H   0  0  0  0  0  0
   34.0651    9.8344   -1.0717 H   0  0  0  0  0  0
   33.3550   10.6401   -2.4514 H   0  0  0  0  0  0
   33.3194    8.8785   -2.3458 H   0  0  0  0  0  0
   35.1322   13.0033   -4.6005 H   0  0  0  0  0  0
   42.7208    9.8950   -7.4905 H   0  0  0  0  0  0
   41.0085    9.9117   -7.0532 H   0  0  0  0  0  0
   42.0770    8.6469   -6.4293 H   0  0  0  0  0  0
  1 20  1  0  0  0
  1 21  2  0  0  0
  1 34  1  0  0  0
  2 15  1  0  0  0
  2 16  2  0  0  0
  2 35  1  0  0  0
  3  4  2  0  0  0
  3 16  1  0  0  0
  3 19  1  0  0  0
  4  5  1  0  0  0
  4 36  1  0  0  0
  5 15  2  0  0  0
  5 17  1  0  0  0
  6  7  1  0  0  0
  6 10  2  0  0  0
  6 37  1  0  0  0
  7  8  2  0  0  0
  7 33  1  0  0  0
  8  9  1  0  0  0
  8 38  1  0  0  0
  9 13  2  0  0  0
  9 17  1  0  0  0
 10 13  1  0  0  0
 10 39  1  0  0  0
 11 12  1  0  0  0
 11 18  3  0  0  0
 12 17  1  0  0  0
 12 40  1  0  0  0
 12 41  1  0  0  0
 13 32  1  0  0  0
 14 19  1  0  0  0
 14 20  2  0  0  0
 14 23  1  0  0  0
 19 42  1  0  0  0
 20 43  1  0  0  0
 21 22  1  0  0  0
 21 24  1  0  0  0
 22 23  2  0  0  0
 22 44  1  0  0  0
 23 45  1  0  0  0
 24 25  1  0  0  0
 25 26  1  0  0  0
 25 46  1  0  0  0
 25 47  1  0  0  0
 26 27  1  0  0  0
 26 31  1  0  0  0
 26 48  1  0  0  0
 27 28  1  0  0  0
 27 49  1  0  0  0
 27 50  1  0  0  0
 28 29  1  0  0  0
 28 30  1  0  0  0
 28 51  1  0  0  0
 29 52  1  0  0  0
 29 53  1  0  0  0
 29 54  1  0  0  0
 30 55  1  0  0  0
 30 56  1  0  0  0
 30 57  1  0  0  0
 31 58  1  0  0  0
 33 59  1  0  0  0
 33 60  1  0  0  0
 33 61  1  0  0  0
M  CHG  1  28   1
M  END
> <s_m_entry_id>
40

> <s_m_entry_name>
2iw6_lig_QQ2.1

> <s_m_job_name>
impact_mini

> <r_i_Potential_Energy-OPLS2005>
-51.1636707796965

> <r_i_RMS_Derivative-OPLS2005>
9.29706324856295e-05

> <r_i_Max_Derivative-OPLS2005>
0.000590636780669378

> <r_i_Stretch_Energy-OPLS2005>
0.101118939131896

> <r_i_Bend_Energy-OPLS2005>
11.638940251362

> <r_i_Dihedral_Energy-OPLS2005>
6.81512584089209

> <r_i_LJ-14_Energy-OPLS2005>
2.232653369685

> <r_i_El-14_Energy-OPLS2005>
-66.5277138736302

> <r_i_Van_der_Waals_Energy-OPLS2005>
0.500792083203242

> <r_i_Electrostatic_Energy-OPLS2005>
-5.92458739034048

> <r_i_target_temperature>
298

$$$$
